<routes>
        <vType id="typeWE" accel="2.5" decel="4.5" sigma="0.5" length="5" minGap="2.5" maxSpeed="40" guiShape="passenger"/>

        <route id="left_up" edges="E4 -E2 -E1 -E5"/>
        <route id="left_right" edges="E4 -E2 -E3 -E6"/>
        <route id="left_down" edges="E4 -E2 E0 -E7"/>

        <route id="right_up" edges="E6 E3 -E1 -E5"/>
        <route id="right_left" edges="E6 E3 E2 -E4"/>
        <route id="right_down" edges="E6 E3 E0 -E7"/>

        <route id="down_up" edges="E7 -E0 -E1 -E5"/>
        <route id="down_left" edges="E7 -E0 E2 -E4"/>
        <route id="down_right" edges="E7 -E0 -E3 -E6"/>

        <route id="up_down" edges="E5 E1 E0 -E7"/>
        <route id="up_left" edges="E5 E1 E2 -E4"/>
        <route id="up_right" edges="E5 E1 -E3 -E6"/>
    <vehicle id="down_up_0" type="typeWE" route="down_up" depart="0" />
    <vehicle id="down_up_1" type="typeWE" route="down_up" depart="1" />
    <vehicle id="down_left_2" type="typeWE" route="down_left" depart="4" />
    <vehicle id="up_down_3" type="typeWE" route="up_down" depart="7" />
    <vehicle id="left_right_4" type="typeWE" route="left_right" depart="13" />
    <vehicle id="right_left_5" type="typeWE" route="right_left" depart="18" />
    <vehicle id="left_right_6" type="typeWE" route="left_right" depart="25" />
    <vehicle id="up_down_7" type="typeWE" route="up_down" depart="29" />
    <vehicle id="right_left_8" type="typeWE" route="right_left" depart="30" />
    <vehicle id="right_down_9" type="typeWE" route="right_down" depart="31" />
    <vehicle id="up_left_10" type="typeWE" route="up_left" depart="35" />
    <vehicle id="up_down_11" type="typeWE" route="up_down" depart="36" />
    <vehicle id="down_up_12" type="typeWE" route="down_up" depart="41" />
    <vehicle id="up_left_13" type="typeWE" route="up_left" depart="53" />
    <vehicle id="down_up_14" type="typeWE" route="down_up" depart="59" />
    <vehicle id="right_left_15" type="typeWE" route="right_left" depart="60" />
    <vehicle id="up_down_16" type="typeWE" route="up_down" depart="69" />
    <vehicle id="down_up_17" type="typeWE" route="down_up" depart="69" />
    <vehicle id="right_left_18" type="typeWE" route="right_left" depart="75" />
    <vehicle id="down_up_19" type="typeWE" route="down_up" depart="75" />
    <vehicle id="up_left_20" type="typeWE" route="up_left" depart="76" />
    <vehicle id="down_up_21" type="typeWE" route="down_up" depart="77" />
    <vehicle id="down_up_22" type="typeWE" route="down_up" depart="80" />
    <vehicle id="down_left_23" type="typeWE" route="down_left" depart="82" />
    <vehicle id="up_down_24" type="typeWE" route="up_down" depart="85" />
    <vehicle id="up_down_25" type="typeWE" route="up_down" depart="87" />
    <vehicle id="down_up_26" type="typeWE" route="down_up" depart="87" />
    <vehicle id="down_up_27" type="typeWE" route="down_up" depart="92" />
    <vehicle id="up_down_28" type="typeWE" route="up_down" depart="98" />
    <vehicle id="down_up_29" type="typeWE" route="down_up" depart="99" />
    <vehicle id="up_down_30" type="typeWE" route="up_down" depart="100" />
    <vehicle id="right_down_31" type="typeWE" route="right_down" depart="104" />
    <vehicle id="right_left_32" type="typeWE" route="right_left" depart="108" />
    <vehicle id="up_down_33" type="typeWE" route="up_down" depart="110" />
    <vehicle id="down_up_34" type="typeWE" route="down_up" depart="111" />
    <vehicle id="left_right_35" type="typeWE" route="left_right" depart="117" />
    <vehicle id="up_down_36" type="typeWE" route="up_down" depart="120" />
    <vehicle id="up_down_37" type="typeWE" route="up_down" depart="125" />
    <vehicle id="up_down_38" type="typeWE" route="up_down" depart="127" />
    <vehicle id="left_right_39" type="typeWE" route="left_right" depart="131" />
    <vehicle id="right_left_40" type="typeWE" route="right_left" depart="135" />
    <vehicle id="up_left_41" type="typeWE" route="up_left" depart="136" />
    <vehicle id="up_down_42" type="typeWE" route="up_down" depart="145" />
    <vehicle id="left_right_43" type="typeWE" route="left_right" depart="149" />
    <vehicle id="right_left_44" type="typeWE" route="right_left" depart="150" />
    <vehicle id="right_left_45" type="typeWE" route="right_left" depart="154" />
    <vehicle id="down_up_46" type="typeWE" route="down_up" depart="156" />
    <vehicle id="left_right_47" type="typeWE" route="left_right" depart="158" />
    <vehicle id="down_up_48" type="typeWE" route="down_up" depart="160" />
    <vehicle id="up_down_49" type="typeWE" route="up_down" depart="162" />
    <vehicle id="right_left_50" type="typeWE" route="right_left" depart="169" />
    <vehicle id="left_right_51" type="typeWE" route="left_right" depart="172" />
    <vehicle id="right_left_52" type="typeWE" route="right_left" depart="173" />
    <vehicle id="down_up_53" type="typeWE" route="down_up" depart="175" />
    <vehicle id="right_left_54" type="typeWE" route="right_left" depart="177" />
    <vehicle id="left_right_55" type="typeWE" route="left_right" depart="178" />
    <vehicle id="up_down_56" type="typeWE" route="up_down" depart="181" />
    <vehicle id="up_down_57" type="typeWE" route="up_down" depart="182" />
    <vehicle id="up_down_58" type="typeWE" route="up_down" depart="188" />
    <vehicle id="right_left_59" type="typeWE" route="right_left" depart="199" />
    <vehicle id="left_right_60" type="typeWE" route="left_right" depart="205" />
    <vehicle id="down_up_61" type="typeWE" route="down_up" depart="206" />
    <vehicle id="left_down_62" type="typeWE" route="left_down" depart="212" />
    <vehicle id="down_up_63" type="typeWE" route="down_up" depart="213" />
    <vehicle id="down_right_64" type="typeWE" route="down_right" depart="218" />
    <vehicle id="down_up_65" type="typeWE" route="down_up" depart="223" />
    <vehicle id="right_down_66" type="typeWE" route="right_down" depart="224" />
    <vehicle id="right_left_67" type="typeWE" route="right_left" depart="227" />
    <vehicle id="down_up_68" type="typeWE" route="down_up" depart="230" />
    <vehicle id="down_up_69" type="typeWE" route="down_up" depart="239" />
    <vehicle id="down_left_70" type="typeWE" route="down_left" depart="246" />
    <vehicle id="up_down_71" type="typeWE" route="up_down" depart="248" />
    <vehicle id="down_up_72" type="typeWE" route="down_up" depart="250" />
    <vehicle id="down_up_73" type="typeWE" route="down_up" depart="255" />
    <vehicle id="left_right_74" type="typeWE" route="left_right" depart="258" />
    <vehicle id="down_up_75" type="typeWE" route="down_up" depart="258" />
    <vehicle id="left_right_76" type="typeWE" route="left_right" depart="259" />
    <vehicle id="down_left_77" type="typeWE" route="down_left" depart="261" />
    <vehicle id="up_right_78" type="typeWE" route="up_right" depart="262" />
    <vehicle id="up_down_79" type="typeWE" route="up_down" depart="264" />
    <vehicle id="right_left_80" type="typeWE" route="right_left" depart="268" />
    <vehicle id="left_right_81" type="typeWE" route="left_right" depart="275" />
    <vehicle id="left_right_82" type="typeWE" route="left_right" depart="276" />
    <vehicle id="down_left_83" type="typeWE" route="down_left" depart="278" />
    <vehicle id="right_down_84" type="typeWE" route="right_down" depart="280" />
    <vehicle id="right_left_85" type="typeWE" route="right_left" depart="283" />
    <vehicle id="up_down_86" type="typeWE" route="up_down" depart="285" />
    <vehicle id="right_left_87" type="typeWE" route="right_left" depart="288" />
    <vehicle id="left_right_88" type="typeWE" route="left_right" depart="289" />
    <vehicle id="down_up_89" type="typeWE" route="down_up" depart="292" />
    <vehicle id="right_left_90" type="typeWE" route="right_left" depart="295" />
    <vehicle id="up_down_91" type="typeWE" route="up_down" depart="308" />
    <vehicle id="up_down_92" type="typeWE" route="up_down" depart="319" />
    <vehicle id="down_up_93" type="typeWE" route="down_up" depart="325" />
    <vehicle id="left_right_94" type="typeWE" route="left_right" depart="335" />
    <vehicle id="down_left_95" type="typeWE" route="down_left" depart="337" />
    <vehicle id="right_left_96" type="typeWE" route="right_left" depart="339" />
    <vehicle id="down_left_97" type="typeWE" route="down_left" depart="348" />
    <vehicle id="up_down_98" type="typeWE" route="up_down" depart="351" />
    <vehicle id="up_down_99" type="typeWE" route="up_down" depart="353" />
    <vehicle id="up_down_100" type="typeWE" route="up_down" depart="360" />
    <vehicle id="down_up_101" type="typeWE" route="down_up" depart="361" />
    <vehicle id="right_left_102" type="typeWE" route="right_left" depart="366" />
    <vehicle id="down_up_103" type="typeWE" route="down_up" depart="369" />
    <vehicle id="left_right_104" type="typeWE" route="left_right" depart="370" />
    <vehicle id="right_left_105" type="typeWE" route="right_left" depart="371" />
    <vehicle id="down_up_106" type="typeWE" route="down_up" depart="373" />
    <vehicle id="up_down_107" type="typeWE" route="up_down" depart="375" />
    <vehicle id="up_down_108" type="typeWE" route="up_down" depart="376" />
    <vehicle id="up_down_109" type="typeWE" route="up_down" depart="379" />
    <vehicle id="down_up_110" type="typeWE" route="down_up" depart="381" />
    <vehicle id="down_right_111" type="typeWE" route="down_right" depart="385" />
    <vehicle id="left_right_112" type="typeWE" route="left_right" depart="390" />
    <vehicle id="right_down_113" type="typeWE" route="right_down" depart="391" />
    <vehicle id="right_up_114" type="typeWE" route="right_up" depart="402" />
    <vehicle id="up_down_115" type="typeWE" route="up_down" depart="404" />
    <vehicle id="down_up_116" type="typeWE" route="down_up" depart="407" />
    <vehicle id="up_down_117" type="typeWE" route="up_down" depart="408" />
    <vehicle id="down_up_118" type="typeWE" route="down_up" depart="409" />
    <vehicle id="up_down_119" type="typeWE" route="up_down" depart="413" />
    <vehicle id="down_up_120" type="typeWE" route="down_up" depart="414" />
    <vehicle id="down_up_121" type="typeWE" route="down_up" depart="415" />
    <vehicle id="down_up_122" type="typeWE" route="down_up" depart="419" />
    <vehicle id="right_up_123" type="typeWE" route="right_up" depart="420" />
    <vehicle id="down_up_124" type="typeWE" route="down_up" depart="424" />
    <vehicle id="down_left_125" type="typeWE" route="down_left" depart="428" />
    <vehicle id="right_down_126" type="typeWE" route="right_down" depart="433" />
    <vehicle id="left_up_127" type="typeWE" route="left_up" depart="434" />
    <vehicle id="down_up_128" type="typeWE" route="down_up" depart="439" />
    <vehicle id="up_right_129" type="typeWE" route="up_right" depart="440" />
    <vehicle id="down_right_130" type="typeWE" route="down_right" depart="441" />
    <vehicle id="right_left_131" type="typeWE" route="right_left" depart="444" />
    <vehicle id="down_right_132" type="typeWE" route="down_right" depart="448" />
    <vehicle id="right_left_133" type="typeWE" route="right_left" depart="450" />
    <vehicle id="left_right_134" type="typeWE" route="left_right" depart="451" />
    <vehicle id="down_up_135" type="typeWE" route="down_up" depart="452" />
    <vehicle id="up_down_136" type="typeWE" route="up_down" depart="460" />
    <vehicle id="up_down_137" type="typeWE" route="up_down" depart="462" />
    <vehicle id="left_right_138" type="typeWE" route="left_right" depart="463" />
    <vehicle id="left_right_139" type="typeWE" route="left_right" depart="465" />
    <vehicle id="up_down_140" type="typeWE" route="up_down" depart="476" />
    <vehicle id="down_up_141" type="typeWE" route="down_up" depart="479" />
    <vehicle id="down_up_142" type="typeWE" route="down_up" depart="485" />
    <vehicle id="down_up_143" type="typeWE" route="down_up" depart="494" />
    <vehicle id="right_left_144" type="typeWE" route="right_left" depart="508" />
    <vehicle id="right_left_145" type="typeWE" route="right_left" depart="509" />
    <vehicle id="right_left_146" type="typeWE" route="right_left" depart="515" />
    <vehicle id="left_down_147" type="typeWE" route="left_down" depart="520" />
    <vehicle id="right_left_148" type="typeWE" route="right_left" depart="529" />
    <vehicle id="right_left_149" type="typeWE" route="right_left" depart="545" />
    <vehicle id="left_right_150" type="typeWE" route="left_right" depart="549" />
    <vehicle id="right_left_151" type="typeWE" route="right_left" depart="550" />
    <vehicle id="down_left_152" type="typeWE" route="down_left" depart="552" />
    <vehicle id="up_right_153" type="typeWE" route="up_right" depart="553" />
    <vehicle id="left_right_154" type="typeWE" route="left_right" depart="554" />
    <vehicle id="left_right_155" type="typeWE" route="left_right" depart="561" />
    <vehicle id="down_right_156" type="typeWE" route="down_right" depart="573" />
    <vehicle id="up_left_157" type="typeWE" route="up_left" depart="576" />
    <vehicle id="up_down_158" type="typeWE" route="up_down" depart="578" />
    <vehicle id="up_down_159" type="typeWE" route="up_down" depart="583" />
    <vehicle id="down_up_160" type="typeWE" route="down_up" depart="587" />
    <vehicle id="up_right_161" type="typeWE" route="up_right" depart="588" />
    <vehicle id="down_up_162" type="typeWE" route="down_up" depart="595" />
    <vehicle id="right_left_163" type="typeWE" route="right_left" depart="598" />
    <vehicle id="down_up_164" type="typeWE" route="down_up" depart="605" />
    <vehicle id="left_right_165" type="typeWE" route="left_right" depart="610" />
    <vehicle id="up_down_166" type="typeWE" route="up_down" depart="610" />
    <vehicle id="left_right_167" type="typeWE" route="left_right" depart="616" />
    <vehicle id="right_left_168" type="typeWE" route="right_left" depart="619" />
    <vehicle id="up_down_169" type="typeWE" route="up_down" depart="622" />
    <vehicle id="down_up_170" type="typeWE" route="down_up" depart="623" />
    <vehicle id="up_down_171" type="typeWE" route="up_down" depart="627" />
    <vehicle id="left_right_172" type="typeWE" route="left_right" depart="629" />
    <vehicle id="up_down_173" type="typeWE" route="up_down" depart="629" />
    <vehicle id="left_right_174" type="typeWE" route="left_right" depart="630" />
    <vehicle id="up_down_175" type="typeWE" route="up_down" depart="632" />
    <vehicle id="up_down_176" type="typeWE" route="up_down" depart="637" />
    <vehicle id="down_left_177" type="typeWE" route="down_left" depart="639" />
    <vehicle id="up_down_178" type="typeWE" route="up_down" depart="643" />
    <vehicle id="up_down_179" type="typeWE" route="up_down" depart="646" />
    <vehicle id="down_left_180" type="typeWE" route="down_left" depart="649" />
    <vehicle id="down_up_181" type="typeWE" route="down_up" depart="653" />
    <vehicle id="left_right_182" type="typeWE" route="left_right" depart="654" />
    <vehicle id="up_left_183" type="typeWE" route="up_left" depart="655" />
    <vehicle id="down_up_184" type="typeWE" route="down_up" depart="663" />
    <vehicle id="down_up_185" type="typeWE" route="down_up" depart="665" />
    <vehicle id="down_up_186" type="typeWE" route="down_up" depart="668" />
    <vehicle id="down_up_187" type="typeWE" route="down_up" depart="671" />
    <vehicle id="up_down_188" type="typeWE" route="up_down" depart="672" />
    <vehicle id="left_right_189" type="typeWE" route="left_right" depart="683" />
    <vehicle id="up_left_190" type="typeWE" route="up_left" depart="683" />
    <vehicle id="up_down_191" type="typeWE" route="up_down" depart="686" />
    <vehicle id="right_left_192" type="typeWE" route="right_left" depart="687" />
    <vehicle id="right_up_193" type="typeWE" route="right_up" depart="688" />
    <vehicle id="up_down_194" type="typeWE" route="up_down" depart="694" />
    <vehicle id="up_down_195" type="typeWE" route="up_down" depart="695" />
    <vehicle id="down_up_196" type="typeWE" route="down_up" depart="699" />
    <vehicle id="up_down_197" type="typeWE" route="up_down" depart="702" />
    <vehicle id="left_right_198" type="typeWE" route="left_right" depart="704" />
    <vehicle id="left_right_199" type="typeWE" route="left_right" depart="714" />
    <vehicle id="down_up_200" type="typeWE" route="down_up" depart="720" />
    <vehicle id="left_right_201" type="typeWE" route="left_right" depart="725" />
    <vehicle id="left_right_202" type="typeWE" route="left_right" depart="731" />
    <vehicle id="up_down_203" type="typeWE" route="up_down" depart="734" />
    <vehicle id="up_down_204" type="typeWE" route="up_down" depart="737" />
    <vehicle id="down_right_205" type="typeWE" route="down_right" depart="740" />
    <vehicle id="down_up_206" type="typeWE" route="down_up" depart="744" />
    <vehicle id="down_up_207" type="typeWE" route="down_up" depart="758" />
    <vehicle id="left_up_208" type="typeWE" route="left_up" depart="759" />
    <vehicle id="up_down_209" type="typeWE" route="up_down" depart="762" />
    <vehicle id="down_up_210" type="typeWE" route="down_up" depart="770" />
    <vehicle id="down_up_211" type="typeWE" route="down_up" depart="775" />
    <vehicle id="up_left_212" type="typeWE" route="up_left" depart="784" />
    <vehicle id="down_up_213" type="typeWE" route="down_up" depart="786" />
    <vehicle id="right_left_214" type="typeWE" route="right_left" depart="790" />
    <vehicle id="left_down_215" type="typeWE" route="left_down" depart="792" />
    <vehicle id="left_right_216" type="typeWE" route="left_right" depart="811" />
    <vehicle id="right_left_217" type="typeWE" route="right_left" depart="811" />
    <vehicle id="left_up_218" type="typeWE" route="left_up" depart="816" />
    <vehicle id="up_down_219" type="typeWE" route="up_down" depart="820" />
    <vehicle id="up_right_220" type="typeWE" route="up_right" depart="827" />
    <vehicle id="up_down_221" type="typeWE" route="up_down" depart="829" />
    <vehicle id="right_left_222" type="typeWE" route="right_left" depart="831" />
    <vehicle id="up_down_223" type="typeWE" route="up_down" depart="838" />
    <vehicle id="down_left_224" type="typeWE" route="down_left" depart="847" />
    <vehicle id="down_up_225" type="typeWE" route="down_up" depart="866" />
    <vehicle id="up_down_226" type="typeWE" route="up_down" depart="867" />
    <vehicle id="right_down_227" type="typeWE" route="right_down" depart="868" />
    <vehicle id="up_down_228" type="typeWE" route="up_down" depart="871" />
    <vehicle id="down_up_229" type="typeWE" route="down_up" depart="871" />
    <vehicle id="down_up_230" type="typeWE" route="down_up" depart="875" />
    <vehicle id="down_left_231" type="typeWE" route="down_left" depart="882" />
    <vehicle id="left_right_232" type="typeWE" route="left_right" depart="885" />
    <vehicle id="right_up_233" type="typeWE" route="right_up" depart="890" />
    <vehicle id="down_up_234" type="typeWE" route="down_up" depart="892" />
    <vehicle id="up_right_235" type="typeWE" route="up_right" depart="893" />
    <vehicle id="right_down_236" type="typeWE" route="right_down" depart="894" />
    <vehicle id="down_up_237" type="typeWE" route="down_up" depart="894" />
    <vehicle id="down_up_238" type="typeWE" route="down_up" depart="899" />
    <vehicle id="down_up_239" type="typeWE" route="down_up" depart="904" />
    <vehicle id="up_down_240" type="typeWE" route="up_down" depart="905" />
    <vehicle id="left_right_241" type="typeWE" route="left_right" depart="908" />
    <vehicle id="left_up_242" type="typeWE" route="left_up" depart="911" />
    <vehicle id="left_right_243" type="typeWE" route="left_right" depart="914" />
    <vehicle id="right_down_244" type="typeWE" route="right_down" depart="914" />
    <vehicle id="left_right_245" type="typeWE" route="left_right" depart="920" />
    <vehicle id="down_up_246" type="typeWE" route="down_up" depart="923" />
    <vehicle id="down_up_247" type="typeWE" route="down_up" depart="929" />
    <vehicle id="left_right_248" type="typeWE" route="left_right" depart="937" />
    <vehicle id="down_up_249" type="typeWE" route="down_up" depart="939" />
    <vehicle id="down_up_250" type="typeWE" route="down_up" depart="942" />
    <vehicle id="up_right_251" type="typeWE" route="up_right" depart="947" />
    <vehicle id="left_right_252" type="typeWE" route="left_right" depart="949" />
    <vehicle id="up_down_253" type="typeWE" route="up_down" depart="952" />
    <vehicle id="down_up_254" type="typeWE" route="down_up" depart="958" />
    <vehicle id="up_down_255" type="typeWE" route="up_down" depart="959" />
    <vehicle id="down_up_256" type="typeWE" route="down_up" depart="970" />
    <vehicle id="right_left_257" type="typeWE" route="right_left" depart="971" />
    <vehicle id="right_left_258" type="typeWE" route="right_left" depart="976" />
    <vehicle id="right_up_259" type="typeWE" route="right_up" depart="978" />
    <vehicle id="left_right_260" type="typeWE" route="left_right" depart="983" />
    <vehicle id="down_up_261" type="typeWE" route="down_up" depart="983" />
    <vehicle id="up_left_262" type="typeWE" route="up_left" depart="990" />
    <vehicle id="left_right_263" type="typeWE" route="left_right" depart="991" />
    <vehicle id="up_down_264" type="typeWE" route="up_down" depart="999" />
    <vehicle id="right_left_265" type="typeWE" route="right_left" depart="1005" />
    <vehicle id="right_left_266" type="typeWE" route="right_left" depart="1008" />
    <vehicle id="right_left_267" type="typeWE" route="right_left" depart="1013" />
    <vehicle id="right_left_268" type="typeWE" route="right_left" depart="1014" />
    <vehicle id="down_up_269" type="typeWE" route="down_up" depart="1014" />
    <vehicle id="down_up_270" type="typeWE" route="down_up" depart="1015" />
    <vehicle id="right_left_271" type="typeWE" route="right_left" depart="1018" />
    <vehicle id="up_down_272" type="typeWE" route="up_down" depart="1021" />
    <vehicle id="right_left_273" type="typeWE" route="right_left" depart="1028" />
    <vehicle id="up_down_274" type="typeWE" route="up_down" depart="1033" />
    <vehicle id="left_right_275" type="typeWE" route="left_right" depart="1034" />
    <vehicle id="up_down_276" type="typeWE" route="up_down" depart="1037" />
    <vehicle id="left_down_277" type="typeWE" route="left_down" depart="1042" />
    <vehicle id="up_down_278" type="typeWE" route="up_down" depart="1043" />
    <vehicle id="right_left_279" type="typeWE" route="right_left" depart="1045" />
    <vehicle id="up_down_280" type="typeWE" route="up_down" depart="1057" />
    <vehicle id="up_down_281" type="typeWE" route="up_down" depart="1071" />
    <vehicle id="left_right_282" type="typeWE" route="left_right" depart="1080" />
    <vehicle id="left_right_283" type="typeWE" route="left_right" depart="1090" />
    <vehicle id="up_down_284" type="typeWE" route="up_down" depart="1094" />
    <vehicle id="left_up_285" type="typeWE" route="left_up" depart="1111" />
    <vehicle id="up_down_286" type="typeWE" route="up_down" depart="1117" />
    <vehicle id="down_up_287" type="typeWE" route="down_up" depart="1123" />
    <vehicle id="left_right_288" type="typeWE" route="left_right" depart="1125" />
    <vehicle id="down_up_289" type="typeWE" route="down_up" depart="1129" />
    <vehicle id="right_left_290" type="typeWE" route="right_left" depart="1130" />
    <vehicle id="down_up_291" type="typeWE" route="down_up" depart="1135" />
    <vehicle id="right_left_292" type="typeWE" route="right_left" depart="1136" />
    <vehicle id="right_down_293" type="typeWE" route="right_down" depart="1140" />
    <vehicle id="left_right_294" type="typeWE" route="left_right" depart="1141" />
    <vehicle id="left_down_295" type="typeWE" route="left_down" depart="1159" />
    <vehicle id="left_right_296" type="typeWE" route="left_right" depart="1161" />
    <vehicle id="left_right_297" type="typeWE" route="left_right" depart="1162" />
    <vehicle id="up_down_298" type="typeWE" route="up_down" depart="1177" />
    <vehicle id="up_down_299" type="typeWE" route="up_down" depart="1182" />
    <vehicle id="right_left_300" type="typeWE" route="right_left" depart="1185" />
    <vehicle id="up_down_301" type="typeWE" route="up_down" depart="1186" />
    <vehicle id="up_down_302" type="typeWE" route="up_down" depart="1187" />
    <vehicle id="up_right_303" type="typeWE" route="up_right" depart="1190" />
    <vehicle id="left_right_304" type="typeWE" route="left_right" depart="1198" />
    <vehicle id="right_left_305" type="typeWE" route="right_left" depart="1207" />
    <vehicle id="up_down_306" type="typeWE" route="up_down" depart="1208" />
    <vehicle id="up_down_307" type="typeWE" route="up_down" depart="1211" />
    <vehicle id="up_down_308" type="typeWE" route="up_down" depart="1220" />
    <vehicle id="up_down_309" type="typeWE" route="up_down" depart="1221" />
    <vehicle id="down_up_310" type="typeWE" route="down_up" depart="1223" />
    <vehicle id="right_left_311" type="typeWE" route="right_left" depart="1226" />
    <vehicle id="down_up_312" type="typeWE" route="down_up" depart="1240" />
    <vehicle id="left_down_313" type="typeWE" route="left_down" depart="1241" />
    <vehicle id="left_right_314" type="typeWE" route="left_right" depart="1251" />
    <vehicle id="up_down_315" type="typeWE" route="up_down" depart="1251" />
    <vehicle id="left_right_316" type="typeWE" route="left_right" depart="1253" />
    <vehicle id="up_down_317" type="typeWE" route="up_down" depart="1255" />
    <vehicle id="down_up_318" type="typeWE" route="down_up" depart="1259" />
    <vehicle id="up_down_319" type="typeWE" route="up_down" depart="1265" />
    <vehicle id="left_right_320" type="typeWE" route="left_right" depart="1277" />
    <vehicle id="left_down_321" type="typeWE" route="left_down" depart="1287" />
    <vehicle id="left_up_322" type="typeWE" route="left_up" depart="1289" />
    <vehicle id="right_left_323" type="typeWE" route="right_left" depart="1291" />
    <vehicle id="left_right_324" type="typeWE" route="left_right" depart="1302" />
    <vehicle id="down_up_325" type="typeWE" route="down_up" depart="1308" />
    <vehicle id="left_down_326" type="typeWE" route="left_down" depart="1317" />
    <vehicle id="up_down_327" type="typeWE" route="up_down" depart="1317" />
    <vehicle id="down_up_328" type="typeWE" route="down_up" depart="1322" />
    <vehicle id="left_right_329" type="typeWE" route="left_right" depart="1326" />
    <vehicle id="up_down_330" type="typeWE" route="up_down" depart="1327" />
    <vehicle id="up_down_331" type="typeWE" route="up_down" depart="1334" />
    <vehicle id="up_down_332" type="typeWE" route="up_down" depart="1337" />
    <vehicle id="right_left_333" type="typeWE" route="right_left" depart="1341" />
    <vehicle id="up_down_334" type="typeWE" route="up_down" depart="1346" />
    <vehicle id="left_right_335" type="typeWE" route="left_right" depart="1350" />
    <vehicle id="up_down_336" type="typeWE" route="up_down" depart="1352" />
    <vehicle id="right_left_337" type="typeWE" route="right_left" depart="1353" />
    <vehicle id="right_left_338" type="typeWE" route="right_left" depart="1356" />
    <vehicle id="down_up_339" type="typeWE" route="down_up" depart="1370" />
    <vehicle id="down_up_340" type="typeWE" route="down_up" depart="1382" />
    <vehicle id="right_down_341" type="typeWE" route="right_down" depart="1383" />
    <vehicle id="down_right_342" type="typeWE" route="down_right" depart="1383" />
    <vehicle id="up_down_343" type="typeWE" route="up_down" depart="1384" />
    <vehicle id="up_down_344" type="typeWE" route="up_down" depart="1387" />
    <vehicle id="down_up_345" type="typeWE" route="down_up" depart="1400" />
    <vehicle id="right_left_346" type="typeWE" route="right_left" depart="1405" />
    <vehicle id="up_down_347" type="typeWE" route="up_down" depart="1405" />
    <vehicle id="right_left_348" type="typeWE" route="right_left" depart="1407" />
    <vehicle id="up_right_349" type="typeWE" route="up_right" depart="1411" />
    <vehicle id="right_left_350" type="typeWE" route="right_left" depart="1416" />
    <vehicle id="down_up_351" type="typeWE" route="down_up" depart="1418" />
    <vehicle id="down_up_352" type="typeWE" route="down_up" depart="1419" />
    <vehicle id="right_left_353" type="typeWE" route="right_left" depart="1425" />
    <vehicle id="up_right_354" type="typeWE" route="up_right" depart="1431" />
    <vehicle id="down_up_355" type="typeWE" route="down_up" depart="1443" />
    <vehicle id="right_down_356" type="typeWE" route="right_down" depart="1458" />
    <vehicle id="down_up_357" type="typeWE" route="down_up" depart="1468" />
    <vehicle id="left_right_358" type="typeWE" route="left_right" depart="1471" />
    <vehicle id="down_up_359" type="typeWE" route="down_up" depart="1473" />
    <vehicle id="left_right_360" type="typeWE" route="left_right" depart="1474" />
    <vehicle id="right_left_361" type="typeWE" route="right_left" depart="1480" />
    <vehicle id="right_down_362" type="typeWE" route="right_down" depart="1484" />
    <vehicle id="up_down_363" type="typeWE" route="up_down" depart="1484" />
    <vehicle id="down_up_364" type="typeWE" route="down_up" depart="1486" />
    <vehicle id="up_down_365" type="typeWE" route="up_down" depart="1487" />
    <vehicle id="up_down_366" type="typeWE" route="up_down" depart="1496" />
    <vehicle id="down_left_367" type="typeWE" route="down_left" depart="1497" />
    <vehicle id="right_down_368" type="typeWE" route="right_down" depart="1498" />
    <vehicle id="down_up_369" type="typeWE" route="down_up" depart="1504" />
    <vehicle id="left_right_370" type="typeWE" route="left_right" depart="1508" />
    <vehicle id="right_up_371" type="typeWE" route="right_up" depart="1517" />