<routes>
        <vType id="typeWE" accel="2.5" decel="4.5" sigma="0.5" length="5" minGap="2.5" maxSpeed="40" guiShape="passenger"/>

        <route id="left_up" edges="E4 -E2 -E1 -E5"/>
        <route id="left_right" edges="E4 -E2 -E3 -E6"/>
        <route id="left_down" edges="E4 -E2 E0 -E7"/>

        <route id="right_up" edges="E6 E3 -E1 -E5"/>
        <route id="right_left" edges="E6 E3 E2 -E4"/>
        <route id="right_down" edges="E6 E3 E0 -E7"/>

        <route id="down_up" edges="E7 -E0 -E1 -E5"/>
        <route id="down_left" edges="E7 -E0 E2 -E4"/>
        <route id="down_right" edges="E7 -E0 -E3 -E6"/>

        <route id="up_down" edges="E5 E1 E0 -E7"/>
        <route id="up_left" edges="E5 E1 E2 -E4"/>
        <route id="up_right" edges="E5 E1 -E3 -E6"/>
    <vehicle id="up_down_0" type="typeWE" route="up_down" depart="1" />
    <vehicle id="down_up_1" type="typeWE" route="down_up" depart="1" />
    <vehicle id="down_left_2" type="typeWE" route="down_left" depart="4" />
    <vehicle id="up_down_3" type="typeWE" route="up_down" depart="7" />
    <vehicle id="left_right_4" type="typeWE" route="left_right" depart="13" />
    <vehicle id="right_left_5" type="typeWE" route="right_left" depart="18" />
    <vehicle id="left_right_6" type="typeWE" route="left_right" depart="25" />
    <vehicle id="up_down_7" type="typeWE" route="up_down" depart="29" />
    <vehicle id="up_down_8" type="typeWE" route="up_down" depart="30" />
    <vehicle id="right_down_9" type="typeWE" route="right_down" depart="31" />
    <vehicle id="up_left_10" type="typeWE" route="up_left" depart="35" />
    <vehicle id="up_down_11" type="typeWE" route="up_down" depart="36" />
    <vehicle id="down_up_12" type="typeWE" route="down_up" depart="41" />
    <vehicle id="up_left_13" type="typeWE" route="up_left" depart="53" />
    <vehicle id="down_up_14" type="typeWE" route="down_up" depart="59" />
    <vehicle id="right_left_15" type="typeWE" route="right_left" depart="60" />
    <vehicle id="up_down_16" type="typeWE" route="up_down" depart="69" />
    <vehicle id="down_up_17" type="typeWE" route="down_up" depart="69" />
    <vehicle id="right_left_18" type="typeWE" route="right_left" depart="75" />
    <vehicle id="down_up_19" type="typeWE" route="down_up" depart="75" />
    <vehicle id="up_left_20" type="typeWE" route="up_left" depart="76" />
    <vehicle id="down_up_21" type="typeWE" route="down_up" depart="77" />
    <vehicle id="down_up_22" type="typeWE" route="down_up" depart="80" />
    <vehicle id="down_left_23" type="typeWE" route="down_left" depart="82" />
    <vehicle id="up_down_24" type="typeWE" route="up_down" depart="85" />
    <vehicle id="up_down_25" type="typeWE" route="up_down" depart="87" />
    <vehicle id="down_up_26" type="typeWE" route="down_up" depart="87" />
    <vehicle id="down_up_27" type="typeWE" route="down_up" depart="92" />
    <vehicle id="up_down_28" type="typeWE" route="up_down" depart="98" />
    <vehicle id="down_up_29" type="typeWE" route="down_up" depart="99" />
    <vehicle id="up_down_30" type="typeWE" route="up_down" depart="100" />
    <vehicle id="up_down_31" type="typeWE" route="up_down" depart="108" />
    <vehicle id="down_up_32" type="typeWE" route="down_up" depart="110" />
    <vehicle id="up_down_33" type="typeWE" route="up_down" depart="117" />
    <vehicle id="left_right_34" type="typeWE" route="left_right" depart="121" />
    <vehicle id="left_right_35" type="typeWE" route="left_right" depart="126" />
    <vehicle id="left_right_36" type="typeWE" route="left_right" depart="128" />
    <vehicle id="up_down_37" type="typeWE" route="up_down" depart="131" />
    <vehicle id="down_up_38" type="typeWE" route="down_up" depart="135" />
    <vehicle id="left_right_39" type="typeWE" route="left_right" depart="150" />
    <vehicle id="right_left_40" type="typeWE" route="right_left" depart="151" />
    <vehicle id="right_left_41" type="typeWE" route="right_left" depart="155" />
    <vehicle id="down_up_42" type="typeWE" route="down_up" depart="157" />
    <vehicle id="left_right_43" type="typeWE" route="left_right" depart="159" />
    <vehicle id="down_up_44" type="typeWE" route="down_up" depart="161" />
    <vehicle id="up_down_45" type="typeWE" route="up_down" depart="163" />
    <vehicle id="right_left_46" type="typeWE" route="right_left" depart="170" />
    <vehicle id="left_right_47" type="typeWE" route="left_right" depart="173" />
    <vehicle id="right_left_48" type="typeWE" route="right_left" depart="174" />
    <vehicle id="down_up_49" type="typeWE" route="down_up" depart="176" />
    <vehicle id="right_left_50" type="typeWE" route="right_left" depart="178" />
    <vehicle id="left_right_51" type="typeWE" route="left_right" depart="179" />
    <vehicle id="up_down_52" type="typeWE" route="up_down" depart="182" />
    <vehicle id="up_down_53" type="typeWE" route="up_down" depart="183" />
    <vehicle id="up_down_54" type="typeWE" route="up_down" depart="189" />
    <vehicle id="right_left_55" type="typeWE" route="right_left" depart="200" />
    <vehicle id="left_right_56" type="typeWE" route="left_right" depart="206" />
    <vehicle id="down_up_57" type="typeWE" route="down_up" depart="207" />
    <vehicle id="left_down_58" type="typeWE" route="left_down" depart="213" />
    <vehicle id="down_up_59" type="typeWE" route="down_up" depart="214" />
    <vehicle id="down_right_60" type="typeWE" route="down_right" depart="219" />
    <vehicle id="down_up_61" type="typeWE" route="down_up" depart="224" />
    <vehicle id="right_down_62" type="typeWE" route="right_down" depart="225" />
    <vehicle id="right_left_63" type="typeWE" route="right_left" depart="228" />
    <vehicle id="down_up_64" type="typeWE" route="down_up" depart="231" />
    <vehicle id="left_right_65" type="typeWE" route="left_right" depart="233" />
    <vehicle id="up_down_66" type="typeWE" route="up_down" depart="240" />
    <vehicle id="up_right_67" type="typeWE" route="up_right" depart="247" />
    <vehicle id="right_left_68" type="typeWE" route="right_left" depart="249" />
    <vehicle id="up_down_69" type="typeWE" route="up_down" depart="251" />
    <vehicle id="up_down_70" type="typeWE" route="up_down" depart="256" />
    <vehicle id="down_up_71" type="typeWE" route="down_up" depart="258" />
    <vehicle id="up_down_72" type="typeWE" route="up_down" depart="259" />
    <vehicle id="down_up_73" type="typeWE" route="down_up" depart="259" />
    <vehicle id="up_right_74" type="typeWE" route="up_right" depart="262" />
    <vehicle id="right_down_75" type="typeWE" route="right_down" depart="263" />
    <vehicle id="right_left_76" type="typeWE" route="right_left" depart="265" />
    <vehicle id="left_right_77" type="typeWE" route="left_right" depart="269" />
    <vehicle id="down_up_78" type="typeWE" route="down_up" depart="275" />
    <vehicle id="down_up_79" type="typeWE" route="down_up" depart="276" />
    <vehicle id="up_right_80" type="typeWE" route="up_right" depart="279" />
    <vehicle id="left_up_81" type="typeWE" route="left_up" depart="281" />
    <vehicle id="left_right_82" type="typeWE" route="left_right" depart="284" />
    <vehicle id="right_left_83" type="typeWE" route="right_left" depart="286" />
    <vehicle id="left_right_84" type="typeWE" route="left_right" depart="289" />
    <vehicle id="down_up_85" type="typeWE" route="down_up" depart="289" />
    <vehicle id="right_left_86" type="typeWE" route="right_left" depart="296" />
    <vehicle id="up_down_87" type="typeWE" route="up_down" depart="309" />
    <vehicle id="up_down_88" type="typeWE" route="up_down" depart="320" />
    <vehicle id="down_up_89" type="typeWE" route="down_up" depart="326" />
    <vehicle id="left_right_90" type="typeWE" route="left_right" depart="336" />
    <vehicle id="down_left_91" type="typeWE" route="down_left" depart="338" />
    <vehicle id="right_left_92" type="typeWE" route="right_left" depart="340" />
    <vehicle id="down_left_93" type="typeWE" route="down_left" depart="349" />
    <vehicle id="down_up_94" type="typeWE" route="down_up" depart="351" />
    <vehicle id="right_left_95" type="typeWE" route="right_left" depart="352" />
    <vehicle id="right_left_96" type="typeWE" route="right_left" depart="354" />
    <vehicle id="right_left_97" type="typeWE" route="right_left" depart="361" />
    <vehicle id="left_right_98" type="typeWE" route="left_right" depart="362" />
    <vehicle id="right_left_99" type="typeWE" route="right_left" depart="362" />
    <vehicle id="down_up_100" type="typeWE" route="down_up" depart="366" />
    <vehicle id="down_up_101" type="typeWE" route="down_up" depart="370" />
    <vehicle id="left_right_102" type="typeWE" route="left_right" depart="372" />
    <vehicle id="up_down_103" type="typeWE" route="up_down" depart="374" />
    <vehicle id="right_left_104" type="typeWE" route="right_left" depart="376" />
    <vehicle id="right_left_105" type="typeWE" route="right_left" depart="377" />
    <vehicle id="right_left_106" type="typeWE" route="right_left" depart="380" />
    <vehicle id="up_down_107" type="typeWE" route="up_down" depart="382" />
    <vehicle id="up_left_108" type="typeWE" route="up_left" depart="386" />
    <vehicle id="down_up_109" type="typeWE" route="down_up" depart="390" />
    <vehicle id="left_up_110" type="typeWE" route="left_up" depart="392" />
    <vehicle id="up_down_111" type="typeWE" route="up_down" depart="405" />
    <vehicle id="down_up_112" type="typeWE" route="down_up" depart="408" />
    <vehicle id="up_down_113" type="typeWE" route="up_down" depart="409" />
    <vehicle id="down_up_114" type="typeWE" route="down_up" depart="414" />
    <vehicle id="up_down_115" type="typeWE" route="up_down" depart="421" />
    <vehicle id="left_down_116" type="typeWE" route="left_down" depart="422" />
    <vehicle id="up_down_117" type="typeWE" route="up_down" depart="426" />
    <vehicle id="up_right_118" type="typeWE" route="up_right" depart="430" />
    <vehicle id="left_up_119" type="typeWE" route="left_up" depart="435" />
    <vehicle id="down_left_120" type="typeWE" route="down_left" depart="435" />
    <vehicle id="up_right_121" type="typeWE" route="up_right" depart="442" />
    <vehicle id="down_right_122" type="typeWE" route="down_right" depart="443" />
    <vehicle id="right_left_123" type="typeWE" route="right_left" depart="446" />
    <vehicle id="down_right_124" type="typeWE" route="down_right" depart="450" />
    <vehicle id="right_left_125" type="typeWE" route="right_left" depart="452" />
    <vehicle id="left_right_126" type="typeWE" route="left_right" depart="453" />
    <vehicle id="down_up_127" type="typeWE" route="down_up" depart="454" />
    <vehicle id="up_down_128" type="typeWE" route="up_down" depart="462" />
    <vehicle id="up_down_129" type="typeWE" route="up_down" depart="464" />
    <vehicle id="left_right_130" type="typeWE" route="left_right" depart="465" />
    <vehicle id="left_right_131" type="typeWE" route="left_right" depart="467" />
    <vehicle id="up_down_132" type="typeWE" route="up_down" depart="478" />
    <vehicle id="down_up_133" type="typeWE" route="down_up" depart="481" />
    <vehicle id="down_up_134" type="typeWE" route="down_up" depart="487" />
    <vehicle id="down_up_135" type="typeWE" route="down_up" depart="496" />
    <vehicle id="right_left_136" type="typeWE" route="right_left" depart="510" />
    <vehicle id="right_left_137" type="typeWE" route="right_left" depart="511" />
    <vehicle id="right_left_138" type="typeWE" route="right_left" depart="517" />
    <vehicle id="left_down_139" type="typeWE" route="left_down" depart="522" />
    <vehicle id="right_left_140" type="typeWE" route="right_left" depart="531" />
    <vehicle id="right_left_141" type="typeWE" route="right_left" depart="547" />
    <vehicle id="left_right_142" type="typeWE" route="left_right" depart="551" />
    <vehicle id="right_left_143" type="typeWE" route="right_left" depart="552" />
    <vehicle id="down_left_144" type="typeWE" route="down_left" depart="554" />
    <vehicle id="up_right_145" type="typeWE" route="up_right" depart="555" />
    <vehicle id="left_right_146" type="typeWE" route="left_right" depart="556" />
    <vehicle id="right_left_147" type="typeWE" route="right_left" depart="561" />
    <vehicle id="down_up_148" type="typeWE" route="down_up" depart="562" />
    <vehicle id="down_up_149" type="typeWE" route="down_up" depart="564" />
    <vehicle id="up_down_150" type="typeWE" route="up_down" depart="572" />
    <vehicle id="down_up_151" type="typeWE" route="down_up" depart="574" />
    <vehicle id="down_right_152" type="typeWE" route="down_right" depart="577" />
    <vehicle id="down_up_153" type="typeWE" route="down_up" depart="579" />
    <vehicle id="down_up_154" type="typeWE" route="down_up" depart="584" />
    <vehicle id="left_right_155" type="typeWE" route="left_right" depart="589" />
    <vehicle id="down_left_156" type="typeWE" route="down_left" depart="589" />
    <vehicle id="down_up_157" type="typeWE" route="down_up" depart="599" />
    <vehicle id="down_up_158" type="typeWE" route="down_up" depart="611" />
    <vehicle id="right_left_159" type="typeWE" route="right_left" depart="612" />
    <vehicle id="down_up_160" type="typeWE" route="down_up" depart="617" />
    <vehicle id="left_right_161" type="typeWE" route="left_right" depart="621" />
    <vehicle id="right_left_162" type="typeWE" route="right_left" depart="624" />
    <vehicle id="up_down_163" type="typeWE" route="up_down" depart="625" />
    <vehicle id="right_left_164" type="typeWE" route="right_left" depart="629" />
    <vehicle id="down_up_165" type="typeWE" route="down_up" depart="630" />
    <vehicle id="right_left_166" type="typeWE" route="right_left" depart="631" />
    <vehicle id="down_up_167" type="typeWE" route="down_up" depart="631" />
    <vehicle id="right_left_168" type="typeWE" route="right_left" depart="634" />
    <vehicle id="down_left_169" type="typeWE" route="down_left" depart="641" />
    <vehicle id="up_down_170" type="typeWE" route="up_down" depart="647" />
    <vehicle id="up_down_171" type="typeWE" route="up_down" depart="648" />
    <vehicle id="up_down_172" type="typeWE" route="up_down" depart="656" />
    <vehicle id="left_down_173" type="typeWE" route="left_down" depart="658" />
    <vehicle id="down_up_174" type="typeWE" route="down_up" depart="658" />
    <vehicle id="left_right_175" type="typeWE" route="left_right" depart="666" />
    <vehicle id="left_right_176" type="typeWE" route="left_right" depart="668" />
    <vehicle id="left_right_177" type="typeWE" route="left_right" depart="671" />
    <vehicle id="down_up_178" type="typeWE" route="down_up" depart="685" />
    <vehicle id="right_up_179" type="typeWE" route="right_up" depart="686" />
    <vehicle id="right_left_180" type="typeWE" route="right_left" depart="689" />
    <vehicle id="left_right_181" type="typeWE" route="left_right" depart="690" />
    <vehicle id="left_down_182" type="typeWE" route="left_down" depart="691" />
    <vehicle id="right_left_183" type="typeWE" route="right_left" depart="697" />
    <vehicle id="right_left_184" type="typeWE" route="right_left" depart="698" />
    <vehicle id="up_down_185" type="typeWE" route="up_down" depart="702" />
    <vehicle id="left_right_186" type="typeWE" route="left_right" depart="707" />
    <vehicle id="left_right_187" type="typeWE" route="left_right" depart="717" />
    <vehicle id="down_up_188" type="typeWE" route="down_up" depart="723" />
    <vehicle id="left_right_189" type="typeWE" route="left_right" depart="728" />
    <vehicle id="left_right_190" type="typeWE" route="left_right" depart="734" />
    <vehicle id="up_down_191" type="typeWE" route="up_down" depart="737" />
    <vehicle id="up_down_192" type="typeWE" route="up_down" depart="740" />
    <vehicle id="down_right_193" type="typeWE" route="down_right" depart="743" />
    <vehicle id="down_up_194" type="typeWE" route="down_up" depart="747" />
    <vehicle id="left_up_195" type="typeWE" route="left_up" depart="755" />
    <vehicle id="up_down_196" type="typeWE" route="up_down" depart="761" />
    <vehicle id="down_left_197" type="typeWE" route="down_left" depart="761" />
    <vehicle id="right_left_198" type="typeWE" route="right_left" depart="765" />
    <vehicle id="up_down_199" type="typeWE" route="up_down" depart="773" />
    <vehicle id="down_up_200" type="typeWE" route="down_up" depart="774" />
    <vehicle id="up_down_201" type="typeWE" route="up_down" depart="776" />
    <vehicle id="left_right_202" type="typeWE" route="left_right" depart="778" />
    <vehicle id="down_right_203" type="typeWE" route="down_right" depart="786" />
    <vehicle id="left_right_204" type="typeWE" route="left_right" depart="789" />
    <vehicle id="up_down_205" type="typeWE" route="up_down" depart="791" />
    <vehicle id="right_left_206" type="typeWE" route="right_left" depart="792" />
    <vehicle id="left_down_207" type="typeWE" route="left_down" depart="794" />
    <vehicle id="left_right_208" type="typeWE" route="left_right" depart="813" />
    <vehicle id="right_left_209" type="typeWE" route="right_left" depart="813" />
    <vehicle id="left_up_210" type="typeWE" route="left_up" depart="818" />
    <vehicle id="up_down_211" type="typeWE" route="up_down" depart="822" />
    <vehicle id="up_right_212" type="typeWE" route="up_right" depart="829" />
    <vehicle id="up_down_213" type="typeWE" route="up_down" depart="831" />
    <vehicle id="right_left_214" type="typeWE" route="right_left" depart="833" />
    <vehicle id="up_down_215" type="typeWE" route="up_down" depart="840" />
    <vehicle id="down_left_216" type="typeWE" route="down_left" depart="849" />
    <vehicle id="down_up_217" type="typeWE" route="down_up" depart="868" />
    <vehicle id="up_down_218" type="typeWE" route="up_down" depart="869" />
    <vehicle id="right_down_219" type="typeWE" route="right_down" depart="870" />
    <vehicle id="up_down_220" type="typeWE" route="up_down" depart="873" />
    <vehicle id="down_up_221" type="typeWE" route="down_up" depart="873" />
    <vehicle id="down_up_222" type="typeWE" route="down_up" depart="877" />
    <vehicle id="down_left_223" type="typeWE" route="down_left" depart="884" />
    <vehicle id="left_right_224" type="typeWE" route="left_right" depart="887" />
    <vehicle id="right_up_225" type="typeWE" route="right_up" depart="892" />
    <vehicle id="down_up_226" type="typeWE" route="down_up" depart="894" />
    <vehicle id="up_right_227" type="typeWE" route="up_right" depart="895" />
    <vehicle id="right_down_228" type="typeWE" route="right_down" depart="896" />
    <vehicle id="down_up_229" type="typeWE" route="down_up" depart="896" />
    <vehicle id="down_up_230" type="typeWE" route="down_up" depart="901" />
    <vehicle id="up_down_231" type="typeWE" route="up_down" depart="904" />
    <vehicle id="up_down_232" type="typeWE" route="up_down" depart="906" />
    <vehicle id="right_left_233" type="typeWE" route="right_left" depart="907" />
    <vehicle id="down_up_234" type="typeWE" route="down_up" depart="909" />
    <vehicle id="down_left_235" type="typeWE" route="down_left" depart="912" />
    <vehicle id="down_up_236" type="typeWE" route="down_up" depart="914" />
    <vehicle id="up_down_237" type="typeWE" route="up_down" depart="915" />
    <vehicle id="down_left_238" type="typeWE" route="down_left" depart="915" />
    <vehicle id="up_down_239" type="typeWE" route="up_down" depart="921" />
    <vehicle id="right_left_240" type="typeWE" route="right_left" depart="925" />
    <vehicle id="right_left_241" type="typeWE" route="right_left" depart="931" />
    <vehicle id="up_down_242" type="typeWE" route="up_down" depart="938" />
    <vehicle id="right_left_243" type="typeWE" route="right_left" depart="941" />
    <vehicle id="down_up_244" type="typeWE" route="down_up" depart="943" />
    <vehicle id="left_right_245" type="typeWE" route="left_right" depart="944" />
    <vehicle id="down_left_246" type="typeWE" route="down_left" depart="948" />
    <vehicle id="right_left_247" type="typeWE" route="right_left" depart="950" />
    <vehicle id="down_up_248" type="typeWE" route="down_up" depart="953" />
    <vehicle id="left_right_249" type="typeWE" route="left_right" depart="960" />
    <vehicle id="down_up_250" type="typeWE" route="down_up" depart="960" />
    <vehicle id="up_down_251" type="typeWE" route="up_down" depart="963" />
    <vehicle id="up_down_252" type="typeWE" route="up_down" depart="964" />
    <vehicle id="up_down_253" type="typeWE" route="up_down" depart="971" />
    <vehicle id="left_right_254" type="typeWE" route="left_right" depart="972" />
    <vehicle id="left_right_255" type="typeWE" route="left_right" depart="977" />
    <vehicle id="left_down_256" type="typeWE" route="left_down" depart="979" />
    <vehicle id="down_up_257" type="typeWE" route="down_up" depart="983" />
    <vehicle id="up_down_258" type="typeWE" route="up_down" depart="984" />
    <vehicle id="right_up_259" type="typeWE" route="right_up" depart="991" />
    <vehicle id="down_up_260" type="typeWE" route="down_up" depart="991" />
    <vehicle id="down_up_261" type="typeWE" route="down_up" depart="998" />
    <vehicle id="left_right_262" type="typeWE" route="left_right" depart="1000" />
    <vehicle id="down_up_263" type="typeWE" route="down_up" depart="1005" />
    <vehicle id="down_up_264" type="typeWE" route="down_up" depart="1008" />
    <vehicle id="down_up_265" type="typeWE" route="down_up" depart="1013" />
    <vehicle id="down_up_266" type="typeWE" route="down_up" depart="1014" />
    <vehicle id="right_left_267" type="typeWE" route="right_left" depart="1015" />
    <vehicle id="right_left_268" type="typeWE" route="right_left" depart="1016" />
    <vehicle id="down_up_269" type="typeWE" route="down_up" depart="1018" />
    <vehicle id="left_right_270" type="typeWE" route="left_right" depart="1029" />
    <vehicle id="up_left_271" type="typeWE" route="up_left" depart="1043" />
    <vehicle id="up_down_272" type="typeWE" route="up_down" depart="1059" />
    <vehicle id="right_down_273" type="typeWE" route="right_down" depart="1070" />
    <vehicle id="right_left_274" type="typeWE" route="right_left" depart="1073" />
    <vehicle id="down_up_275" type="typeWE" route="down_up" depart="1073" />
    <vehicle id="up_down_276" type="typeWE" route="up_down" depart="1081" />
    <vehicle id="up_down_277" type="typeWE" route="up_down" depart="1091" />
    <vehicle id="left_right_278" type="typeWE" route="left_right" depart="1096" />
    <vehicle id="up_left_279" type="typeWE" route="up_left" depart="1100" />
    <vehicle id="right_down_280" type="typeWE" route="right_down" depart="1112" />
    <vehicle id="down_up_281" type="typeWE" route="down_up" depart="1118" />
    <vehicle id="left_right_282" type="typeWE" route="left_right" depart="1125" />
    <vehicle id="right_left_283" type="typeWE" route="right_left" depart="1131" />
    <vehicle id="down_up_284" type="typeWE" route="down_up" depart="1131" />
    <vehicle id="left_right_285" type="typeWE" route="left_right" depart="1138" />
    <vehicle id="left_up_286" type="typeWE" route="left_up" depart="1142" />
    <vehicle id="down_up_287" type="typeWE" route="down_up" depart="1142" />
    <vehicle id="down_right_288" type="typeWE" route="down_right" depart="1160" />
    <vehicle id="down_up_289" type="typeWE" route="down_up" depart="1162" />
    <vehicle id="down_up_290" type="typeWE" route="down_up" depart="1163" />
    <vehicle id="right_left_291" type="typeWE" route="right_left" depart="1179" />
    <vehicle id="right_left_292" type="typeWE" route="right_left" depart="1184" />
    <vehicle id="left_right_293" type="typeWE" route="left_right" depart="1187" />
    <vehicle id="right_left_294" type="typeWE" route="right_left" depart="1188" />
    <vehicle id="right_left_295" type="typeWE" route="right_left" depart="1189" />
    <vehicle id="left_right_296" type="typeWE" route="left_right" depart="1200" />
    <vehicle id="right_left_297" type="typeWE" route="right_left" depart="1209" />
    <vehicle id="up_down_298" type="typeWE" route="up_down" depart="1210" />
    <vehicle id="up_down_299" type="typeWE" route="up_down" depart="1213" />
    <vehicle id="up_down_300" type="typeWE" route="up_down" depart="1222" />
    <vehicle id="up_down_301" type="typeWE" route="up_down" depart="1223" />
    <vehicle id="down_up_302" type="typeWE" route="down_up" depart="1225" />
    <vehicle id="right_left_303" type="typeWE" route="right_left" depart="1228" />
    <vehicle id="down_up_304" type="typeWE" route="down_up" depart="1242" />
    <vehicle id="left_down_305" type="typeWE" route="left_down" depart="1243" />
    <vehicle id="left_right_306" type="typeWE" route="left_right" depart="1253" />
    <vehicle id="up_down_307" type="typeWE" route="up_down" depart="1253" />
    <vehicle id="left_right_308" type="typeWE" route="left_right" depart="1255" />
    <vehicle id="up_down_309" type="typeWE" route="up_down" depart="1257" />
    <vehicle id="down_up_310" type="typeWE" route="down_up" depart="1261" />
    <vehicle id="up_down_311" type="typeWE" route="up_down" depart="1267" />
    <vehicle id="left_right_312" type="typeWE" route="left_right" depart="1279" />
    <vehicle id="left_down_313" type="typeWE" route="left_down" depart="1289" />
    <vehicle id="left_up_314" type="typeWE" route="left_up" depart="1291" />
    <vehicle id="right_left_315" type="typeWE" route="right_left" depart="1293" />
    <vehicle id="up_down_316" type="typeWE" route="up_down" depart="1293" />
    <vehicle id="down_up_317" type="typeWE" route="down_up" depart="1303" />
    <vehicle id="up_down_318" type="typeWE" route="up_down" depart="1310" />
    <vehicle id="down_right_319" type="typeWE" route="down_right" depart="1318" />
    <vehicle id="right_left_320" type="typeWE" route="right_left" depart="1319" />
    <vehicle id="up_down_321" type="typeWE" route="up_down" depart="1324" />
    <vehicle id="down_up_322" type="typeWE" route="down_up" depart="1327" />
    <vehicle id="right_left_323" type="typeWE" route="right_left" depart="1329" />
    <vehicle id="up_left_324" type="typeWE" route="up_left" depart="1330" />
    <vehicle id="left_right_325" type="typeWE" route="left_right" depart="1336" />
    <vehicle id="left_right_326" type="typeWE" route="left_right" depart="1339" />
    <vehicle id="down_up_327" type="typeWE" route="down_up" depart="1342" />
    <vehicle id="left_right_328" type="typeWE" route="left_right" depart="1348" />
    <vehicle id="up_down_329" type="typeWE" route="up_down" depart="1351" />
    <vehicle id="down_right_330" type="typeWE" route="down_right" depart="1352" />
    <vehicle id="down_up_331" type="typeWE" route="down_up" depart="1353" />
    <vehicle id="up_down_332" type="typeWE" route="up_down" depart="1354" />
    <vehicle id="up_down_333" type="typeWE" route="up_down" depart="1357" />
    <vehicle id="left_right_334" type="typeWE" route="left_right" depart="1372" />
    <vehicle id="left_right_335" type="typeWE" route="left_right" depart="1384" />
    <vehicle id="up_right_336" type="typeWE" route="up_right" depart="1384" />
    <vehicle id="left_down_337" type="typeWE" route="left_down" depart="1385" />
    <vehicle id="down_up_338" type="typeWE" route="down_up" depart="1385" />
    <vehicle id="down_up_339" type="typeWE" route="down_up" depart="1388" />
    <vehicle id="left_right_340" type="typeWE" route="left_right" depart="1402" />
    <vehicle id="up_down_341" type="typeWE" route="up_down" depart="1406" />
    <vehicle id="down_up_342" type="typeWE" route="down_up" depart="1406" />
    <vehicle id="up_down_343" type="typeWE" route="up_down" depart="1408" />
    <vehicle id="down_left_344" type="typeWE" route="down_left" depart="1412" />
    <vehicle id="up_down_345" type="typeWE" route="up_down" depart="1417" />
    <vehicle id="left_right_346" type="typeWE" route="left_right" depart="1420" />
    <vehicle id="up_down_347" type="typeWE" route="up_down" depart="1420" />
    <vehicle id="down_up_348" type="typeWE" route="down_up" depart="1420" />
    <vehicle id="right_left_349" type="typeWE" route="right_left" depart="1426" />
    <vehicle id="up_right_350" type="typeWE" route="up_right" depart="1432" />
    <vehicle id="down_up_351" type="typeWE" route="down_up" depart="1444" />
    <vehicle id="right_down_352" type="typeWE" route="right_down" depart="1459" />
    <vehicle id="down_up_353" type="typeWE" route="down_up" depart="1464" />
    <vehicle id="up_down_354" type="typeWE" route="up_down" depart="1469" />
    <vehicle id="down_up_355" type="typeWE" route="down_up" depart="1471" />
    <vehicle id="up_down_356" type="typeWE" route="up_down" depart="1473" />
    <vehicle id="right_left_357" type="typeWE" route="right_left" depart="1474" />
    <vehicle id="up_down_358" type="typeWE" route="up_down" depart="1474" />
    <vehicle id="down_up_359" type="typeWE" route="down_up" depart="1480" />
    <vehicle id="down_left_360" type="typeWE" route="down_left" depart="1484" />
    <vehicle id="left_right_361" type="typeWE" route="left_right" depart="1485" />
    <vehicle id="right_left_362" type="typeWE" route="right_left" depart="1487" />
    <vehicle id="left_right_363" type="typeWE" route="left_right" depart="1488" />
    <vehicle id="left_right_364" type="typeWE" route="left_right" depart="1497" />
    <vehicle id="right_down_365" type="typeWE" route="right_down" depart="1498" />
    <vehicle id="down_left_366" type="typeWE" route="down_left" depart="1498" />
    <vehicle id="right_left_367" type="typeWE" route="right_left" depart="1505" />
    <vehicle id="up_down_368" type="typeWE" route="up_down" depart="1508" />
    <vehicle id="down_right_369" type="typeWE" route="down_right" depart="1517" />
    <vehicle id="up_down_370" type="typeWE" route="up_down" depart="1519" />