<routes>
        <vType id="typeWE" accel="2.5" decel="4.5" sigma="0.5" length="5" minGap="2.5" maxSpeed="40" guiShape="passenger"/>

        <route id="left_up" edges="E4 -E2 -E1 -E5"/>
        <route id="left_right" edges="E4 -E2 -E3 -E6"/>
        <route id="left_down" edges="E4 -E2 E0 -E7"/>

        <route id="right_up" edges="E6 E3 -E1 -E5"/>
        <route id="right_left" edges="E6 E3 E2 -E4"/>
        <route id="right_down" edges="E6 E3 E0 -E7"/>

        <route id="down_up" edges="E7 -E0 -E1 -E5"/>
        <route id="down_left" edges="E7 -E0 E2 -E4"/>
        <route id="down_right" edges="E7 -E0 -E3 -E6"/>

        <route id="up_down" edges="E5 E1 E0 -E7"/>
        <route id="up_left" edges="E5 E1 E2 -E4"/>
        <route id="up_right" edges="E5 E1 -E3 -E6"/>
    <vehicle id="up_down_0" type="typeWE" route="up_down" depart="1" />
    <vehicle id="down_up_1" type="typeWE" route="down_up" depart="1" />
    <vehicle id="down_left_2" type="typeWE" route="down_left" depart="4" />
    <vehicle id="up_down_3" type="typeWE" route="up_down" depart="7" />
    <vehicle id="left_right_4" type="typeWE" route="left_right" depart="13" />
    <vehicle id="right_left_5" type="typeWE" route="right_left" depart="18" />
    <vehicle id="left_right_6" type="typeWE" route="left_right" depart="25" />
    <vehicle id="up_down_7" type="typeWE" route="up_down" depart="29" />
    <vehicle id="up_down_8" type="typeWE" route="up_down" depart="30" />
    <vehicle id="right_down_9" type="typeWE" route="right_down" depart="31" />
    <vehicle id="up_left_10" type="typeWE" route="up_left" depart="35" />
    <vehicle id="up_down_11" type="typeWE" route="up_down" depart="36" />
    <vehicle id="down_up_12" type="typeWE" route="down_up" depart="41" />
    <vehicle id="up_left_13" type="typeWE" route="up_left" depart="53" />
    <vehicle id="down_up_14" type="typeWE" route="down_up" depart="59" />
    <vehicle id="right_left_15" type="typeWE" route="right_left" depart="60" />
    <vehicle id="down_up_16" type="typeWE" route="down_up" depart="75" />
    <vehicle id="right_left_17" type="typeWE" route="right_left" depart="76" />
    <vehicle id="up_down_18" type="typeWE" route="up_down" depart="78" />
    <vehicle id="up_down_19" type="typeWE" route="up_down" depart="81" />
    <vehicle id="up_down_20" type="typeWE" route="up_down" depart="86" />
    <vehicle id="up_down_21" type="typeWE" route="up_down" depart="88" />
    <vehicle id="down_up_22" type="typeWE" route="down_up" depart="88" />
    <vehicle id="down_up_23" type="typeWE" route="down_up" depart="93" />
    <vehicle id="up_down_24" type="typeWE" route="up_down" depart="99" />
    <vehicle id="down_up_25" type="typeWE" route="down_up" depart="100" />
    <vehicle id="up_down_26" type="typeWE" route="up_down" depart="101" />
    <vehicle id="right_down_27" type="typeWE" route="right_down" depart="105" />
    <vehicle id="right_left_28" type="typeWE" route="right_left" depart="109" />
    <vehicle id="up_down_29" type="typeWE" route="up_down" depart="111" />
    <vehicle id="right_left_30" type="typeWE" route="right_left" depart="118" />
    <vehicle id="down_up_31" type="typeWE" route="down_up" depart="121" />
    <vehicle id="down_up_32" type="typeWE" route="down_up" depart="126" />
    <vehicle id="down_up_33" type="typeWE" route="down_up" depart="128" />
    <vehicle id="down_up_34" type="typeWE" route="down_up" depart="136" />
    <vehicle id="left_right_35" type="typeWE" route="left_right" depart="151" />
    <vehicle id="right_left_36" type="typeWE" route="right_left" depart="152" />
    <vehicle id="right_left_37" type="typeWE" route="right_left" depart="156" />
    <vehicle id="down_up_38" type="typeWE" route="down_up" depart="158" />
    <vehicle id="left_right_39" type="typeWE" route="left_right" depart="160" />
    <vehicle id="down_up_40" type="typeWE" route="down_up" depart="162" />
    <vehicle id="up_down_41" type="typeWE" route="up_down" depart="164" />
    <vehicle id="right_left_42" type="typeWE" route="right_left" depart="171" />
    <vehicle id="left_right_43" type="typeWE" route="left_right" depart="174" />
    <vehicle id="right_left_44" type="typeWE" route="right_left" depart="175" />
    <vehicle id="down_up_45" type="typeWE" route="down_up" depart="177" />
    <vehicle id="right_left_46" type="typeWE" route="right_left" depart="179" />
    <vehicle id="left_right_47" type="typeWE" route="left_right" depart="180" />
    <vehicle id="up_down_48" type="typeWE" route="up_down" depart="183" />
    <vehicle id="up_down_49" type="typeWE" route="up_down" depart="184" />
    <vehicle id="up_down_50" type="typeWE" route="up_down" depart="190" />
    <vehicle id="right_left_51" type="typeWE" route="right_left" depart="201" />
    <vehicle id="left_right_52" type="typeWE" route="left_right" depart="207" />
    <vehicle id="down_up_53" type="typeWE" route="down_up" depart="208" />
    <vehicle id="left_down_54" type="typeWE" route="left_down" depart="214" />
    <vehicle id="down_up_55" type="typeWE" route="down_up" depart="215" />
    <vehicle id="down_right_56" type="typeWE" route="down_right" depart="220" />
    <vehicle id="down_up_57" type="typeWE" route="down_up" depart="225" />
    <vehicle id="right_down_58" type="typeWE" route="right_down" depart="226" />
    <vehicle id="right_left_59" type="typeWE" route="right_left" depart="229" />
    <vehicle id="down_up_60" type="typeWE" route="down_up" depart="232" />
    <vehicle id="left_right_61" type="typeWE" route="left_right" depart="234" />
    <vehicle id="up_down_62" type="typeWE" route="up_down" depart="241" />
    <vehicle id="up_right_63" type="typeWE" route="up_right" depart="248" />
    <vehicle id="right_left_64" type="typeWE" route="right_left" depart="250" />
    <vehicle id="up_down_65" type="typeWE" route="up_down" depart="252" />
    <vehicle id="up_down_66" type="typeWE" route="up_down" depart="257" />
    <vehicle id="down_up_67" type="typeWE" route="down_up" depart="259" />
    <vehicle id="up_down_68" type="typeWE" route="up_down" depart="260" />
    <vehicle id="down_up_69" type="typeWE" route="down_up" depart="260" />
    <vehicle id="up_right_70" type="typeWE" route="up_right" depart="263" />
    <vehicle id="right_down_71" type="typeWE" route="right_down" depart="264" />
    <vehicle id="right_left_72" type="typeWE" route="right_left" depart="266" />
    <vehicle id="left_right_73" type="typeWE" route="left_right" depart="270" />
    <vehicle id="down_up_74" type="typeWE" route="down_up" depart="276" />
    <vehicle id="down_up_75" type="typeWE" route="down_up" depart="277" />
    <vehicle id="up_right_76" type="typeWE" route="up_right" depart="280" />
    <vehicle id="left_up_77" type="typeWE" route="left_up" depart="282" />
    <vehicle id="left_right_78" type="typeWE" route="left_right" depart="285" />
    <vehicle id="right_left_79" type="typeWE" route="right_left" depart="287" />
    <vehicle id="left_right_80" type="typeWE" route="left_right" depart="290" />
    <vehicle id="down_up_81" type="typeWE" route="down_up" depart="290" />
    <vehicle id="right_left_82" type="typeWE" route="right_left" depart="297" />
    <vehicle id="up_down_83" type="typeWE" route="up_down" depart="310" />
    <vehicle id="up_down_84" type="typeWE" route="up_down" depart="321" />
    <vehicle id="down_up_85" type="typeWE" route="down_up" depart="327" />
    <vehicle id="left_right_86" type="typeWE" route="left_right" depart="337" />
    <vehicle id="down_left_87" type="typeWE" route="down_left" depart="339" />
    <vehicle id="right_left_88" type="typeWE" route="right_left" depart="341" />
    <vehicle id="down_left_89" type="typeWE" route="down_left" depart="350" />
    <vehicle id="up_down_90" type="typeWE" route="up_down" depart="353" />
    <vehicle id="up_down_91" type="typeWE" route="up_down" depart="355" />
    <vehicle id="up_down_92" type="typeWE" route="up_down" depart="362" />
    <vehicle id="down_up_93" type="typeWE" route="down_up" depart="363" />
    <vehicle id="right_left_94" type="typeWE" route="right_left" depart="368" />
    <vehicle id="down_up_95" type="typeWE" route="down_up" depart="371" />
    <vehicle id="left_right_96" type="typeWE" route="left_right" depart="372" />
    <vehicle id="right_left_97" type="typeWE" route="right_left" depart="373" />
    <vehicle id="down_up_98" type="typeWE" route="down_up" depart="375" />
    <vehicle id="up_down_99" type="typeWE" route="up_down" depart="377" />
    <vehicle id="up_down_100" type="typeWE" route="up_down" depart="378" />
    <vehicle id="up_down_101" type="typeWE" route="up_down" depart="381" />
    <vehicle id="down_up_102" type="typeWE" route="down_up" depart="383" />
    <vehicle id="down_right_103" type="typeWE" route="down_right" depart="387" />
    <vehicle id="left_right_104" type="typeWE" route="left_right" depart="392" />
    <vehicle id="right_down_105" type="typeWE" route="right_down" depart="393" />
    <vehicle id="right_up_106" type="typeWE" route="right_up" depart="404" />
    <vehicle id="up_down_107" type="typeWE" route="up_down" depart="406" />
    <vehicle id="down_up_108" type="typeWE" route="down_up" depart="409" />
    <vehicle id="up_down_109" type="typeWE" route="up_down" depart="410" />
    <vehicle id="down_up_110" type="typeWE" route="down_up" depart="411" />
    <vehicle id="up_down_111" type="typeWE" route="up_down" depart="415" />
    <vehicle id="down_up_112" type="typeWE" route="down_up" depart="416" />
    <vehicle id="down_up_113" type="typeWE" route="down_up" depart="417" />
    <vehicle id="down_up_114" type="typeWE" route="down_up" depart="421" />
    <vehicle id="right_up_115" type="typeWE" route="right_up" depart="422" />
    <vehicle id="down_up_116" type="typeWE" route="down_up" depart="426" />
    <vehicle id="down_left_117" type="typeWE" route="down_left" depart="430" />
    <vehicle id="right_down_118" type="typeWE" route="right_down" depart="435" />
    <vehicle id="left_up_119" type="typeWE" route="left_up" depart="436" />
    <vehicle id="down_up_120" type="typeWE" route="down_up" depart="441" />
    <vehicle id="up_right_121" type="typeWE" route="up_right" depart="442" />
    <vehicle id="down_right_122" type="typeWE" route="down_right" depart="443" />
    <vehicle id="right_left_123" type="typeWE" route="right_left" depart="446" />
    <vehicle id="down_right_124" type="typeWE" route="down_right" depart="450" />
    <vehicle id="right_left_125" type="typeWE" route="right_left" depart="452" />
    <vehicle id="left_right_126" type="typeWE" route="left_right" depart="453" />
    <vehicle id="down_up_127" type="typeWE" route="down_up" depart="454" />
    <vehicle id="up_down_128" type="typeWE" route="up_down" depart="462" />
    <vehicle id="right_left_129" type="typeWE" route="right_left" depart="465" />
    <vehicle id="right_left_130" type="typeWE" route="right_left" depart="467" />
    <vehicle id="down_up_131" type="typeWE" route="down_up" depart="478" />
    <vehicle id="right_left_132" type="typeWE" route="right_left" depart="488" />
    <vehicle id="right_left_133" type="typeWE" route="right_left" depart="497" />
    <vehicle id="down_up_134" type="typeWE" route="down_up" depart="510" />
    <vehicle id="down_up_135" type="typeWE" route="down_up" depart="511" />
    <vehicle id="up_down_136" type="typeWE" route="up_down" depart="517" />
    <vehicle id="down_left_137" type="typeWE" route="down_left" depart="520" />
    <vehicle id="right_up_138" type="typeWE" route="right_up" depart="522" />
    <vehicle id="up_down_139" type="typeWE" route="up_down" depart="529" />
    <vehicle id="right_left_140" type="typeWE" route="right_left" depart="531" />
    <vehicle id="right_left_141" type="typeWE" route="right_left" depart="547" />
    <vehicle id="left_right_142" type="typeWE" route="left_right" depart="551" />
    <vehicle id="right_left_143" type="typeWE" route="right_left" depart="552" />
    <vehicle id="down_left_144" type="typeWE" route="down_left" depart="554" />
    <vehicle id="up_right_145" type="typeWE" route="up_right" depart="555" />
    <vehicle id="left_right_146" type="typeWE" route="left_right" depart="556" />
    <vehicle id="left_right_147" type="typeWE" route="left_right" depart="563" />
    <vehicle id="down_right_148" type="typeWE" route="down_right" depart="575" />
    <vehicle id="up_left_149" type="typeWE" route="up_left" depart="578" />
    <vehicle id="up_down_150" type="typeWE" route="up_down" depart="580" />
    <vehicle id="up_down_151" type="typeWE" route="up_down" depart="585" />
    <vehicle id="down_up_152" type="typeWE" route="down_up" depart="589" />
    <vehicle id="up_right_153" type="typeWE" route="up_right" depart="590" />
    <vehicle id="down_up_154" type="typeWE" route="down_up" depart="597" />
    <vehicle id="right_left_155" type="typeWE" route="right_left" depart="600" />
    <vehicle id="down_up_156" type="typeWE" route="down_up" depart="607" />
    <vehicle id="down_up_157" type="typeWE" route="down_up" depart="612" />
    <vehicle id="right_left_158" type="typeWE" route="right_left" depart="618" />
    <vehicle id="up_down_159" type="typeWE" route="up_down" depart="621" />
    <vehicle id="down_up_160" type="typeWE" route="down_up" depart="624" />
    <vehicle id="left_right_161" type="typeWE" route="left_right" depart="626" />
    <vehicle id="up_down_162" type="typeWE" route="up_down" depart="628" />
    <vehicle id="up_down_163" type="typeWE" route="up_down" depart="629" />
    <vehicle id="left_right_164" type="typeWE" route="left_right" depart="631" />
    <vehicle id="up_down_165" type="typeWE" route="up_down" depart="631" />
    <vehicle id="left_right_166" type="typeWE" route="left_right" depart="632" />
    <vehicle id="up_down_167" type="typeWE" route="up_down" depart="634" />
    <vehicle id="up_down_168" type="typeWE" route="up_down" depart="639" />
    <vehicle id="down_left_169" type="typeWE" route="down_left" depart="641" />
    <vehicle id="up_down_170" type="typeWE" route="up_down" depart="647" />
    <vehicle id="up_down_171" type="typeWE" route="up_down" depart="648" />
    <vehicle id="up_down_172" type="typeWE" route="up_down" depart="656" />
    <vehicle id="left_down_173" type="typeWE" route="left_down" depart="658" />
    <vehicle id="down_up_174" type="typeWE" route="down_up" depart="658" />
    <vehicle id="left_right_175" type="typeWE" route="left_right" depart="666" />
    <vehicle id="left_right_176" type="typeWE" route="left_right" depart="668" />
    <vehicle id="left_right_177" type="typeWE" route="left_right" depart="671" />
    <vehicle id="down_up_178" type="typeWE" route="down_up" depart="685" />
    <vehicle id="right_up_179" type="typeWE" route="right_up" depart="686" />
    <vehicle id="right_left_180" type="typeWE" route="right_left" depart="689" />
    <vehicle id="left_right_181" type="typeWE" route="left_right" depart="690" />
    <vehicle id="left_down_182" type="typeWE" route="left_down" depart="691" />
    <vehicle id="right_left_183" type="typeWE" route="right_left" depart="697" />
    <vehicle id="right_left_184" type="typeWE" route="right_left" depart="698" />
    <vehicle id="up_down_185" type="typeWE" route="up_down" depart="702" />
    <vehicle id="left_right_186" type="typeWE" route="left_right" depart="707" />
    <vehicle id="left_right_187" type="typeWE" route="left_right" depart="717" />
    <vehicle id="down_up_188" type="typeWE" route="down_up" depart="723" />
    <vehicle id="left_right_189" type="typeWE" route="left_right" depart="728" />
    <vehicle id="left_right_190" type="typeWE" route="left_right" depart="734" />
    <vehicle id="up_down_191" type="typeWE" route="up_down" depart="737" />
    <vehicle id="up_down_192" type="typeWE" route="up_down" depart="740" />
    <vehicle id="down_right_193" type="typeWE" route="down_right" depart="743" />
    <vehicle id="down_up_194" type="typeWE" route="down_up" depart="747" />
    <vehicle id="right_left_195" type="typeWE" route="right_left" depart="750" />
    <vehicle id="down_left_196" type="typeWE" route="down_left" depart="754" />
    <vehicle id="down_left_197" type="typeWE" route="down_left" depart="761" />
    <vehicle id="right_left_198" type="typeWE" route="right_left" depart="765" />
    <vehicle id="up_down_199" type="typeWE" route="up_down" depart="773" />
    <vehicle id="down_up_200" type="typeWE" route="down_up" depart="774" />
    <vehicle id="up_down_201" type="typeWE" route="up_down" depart="776" />
    <vehicle id="left_right_202" type="typeWE" route="left_right" depart="778" />
    <vehicle id="down_right_203" type="typeWE" route="down_right" depart="786" />
    <vehicle id="left_right_204" type="typeWE" route="left_right" depart="789" />
    <vehicle id="up_down_205" type="typeWE" route="up_down" depart="791" />
    <vehicle id="right_left_206" type="typeWE" route="right_left" depart="792" />
    <vehicle id="left_down_207" type="typeWE" route="left_down" depart="794" />
    <vehicle id="left_right_208" type="typeWE" route="left_right" depart="813" />
    <vehicle id="right_left_209" type="typeWE" route="right_left" depart="813" />
    <vehicle id="left_up_210" type="typeWE" route="left_up" depart="818" />
    <vehicle id="up_down_211" type="typeWE" route="up_down" depart="822" />
    <vehicle id="up_right_212" type="typeWE" route="up_right" depart="829" />
    <vehicle id="up_down_213" type="typeWE" route="up_down" depart="831" />
    <vehicle id="right_left_214" type="typeWE" route="right_left" depart="833" />
    <vehicle id="up_down_215" type="typeWE" route="up_down" depart="840" />
    <vehicle id="down_left_216" type="typeWE" route="down_left" depart="849" />
    <vehicle id="down_up_217" type="typeWE" route="down_up" depart="868" />
    <vehicle id="up_down_218" type="typeWE" route="up_down" depart="869" />
    <vehicle id="right_down_219" type="typeWE" route="right_down" depart="870" />
    <vehicle id="up_down_220" type="typeWE" route="up_down" depart="873" />
    <vehicle id="down_up_221" type="typeWE" route="down_up" depart="873" />
    <vehicle id="down_up_222" type="typeWE" route="down_up" depart="877" />
    <vehicle id="down_left_223" type="typeWE" route="down_left" depart="884" />
    <vehicle id="left_right_224" type="typeWE" route="left_right" depart="887" />
    <vehicle id="right_up_225" type="typeWE" route="right_up" depart="892" />
    <vehicle id="down_up_226" type="typeWE" route="down_up" depart="894" />
    <vehicle id="up_right_227" type="typeWE" route="up_right" depart="895" />
    <vehicle id="right_down_228" type="typeWE" route="right_down" depart="896" />
    <vehicle id="down_up_229" type="typeWE" route="down_up" depart="896" />
    <vehicle id="down_up_230" type="typeWE" route="down_up" depart="901" />
    <vehicle id="up_down_231" type="typeWE" route="up_down" depart="904" />
    <vehicle id="up_down_232" type="typeWE" route="up_down" depart="906" />
    <vehicle id="right_left_233" type="typeWE" route="right_left" depart="907" />
    <vehicle id="down_up_234" type="typeWE" route="down_up" depart="909" />
    <vehicle id="down_left_235" type="typeWE" route="down_left" depart="912" />
    <vehicle id="down_up_236" type="typeWE" route="down_up" depart="914" />
    <vehicle id="up_down_237" type="typeWE" route="up_down" depart="915" />
    <vehicle id="down_left_238" type="typeWE" route="down_left" depart="915" />
    <vehicle id="up_down_239" type="typeWE" route="up_down" depart="921" />
    <vehicle id="right_left_240" type="typeWE" route="right_left" depart="925" />
    <vehicle id="right_left_241" type="typeWE" route="right_left" depart="931" />
    <vehicle id="up_down_242" type="typeWE" route="up_down" depart="938" />
    <vehicle id="right_left_243" type="typeWE" route="right_left" depart="941" />
    <vehicle id="down_up_244" type="typeWE" route="down_up" depart="943" />
    <vehicle id="left_right_245" type="typeWE" route="left_right" depart="944" />
    <vehicle id="down_left_246" type="typeWE" route="down_left" depart="948" />
    <vehicle id="right_left_247" type="typeWE" route="right_left" depart="950" />
    <vehicle id="down_up_248" type="typeWE" route="down_up" depart="953" />
    <vehicle id="left_right_249" type="typeWE" route="left_right" depart="960" />
    <vehicle id="down_up_250" type="typeWE" route="down_up" depart="960" />
    <vehicle id="up_down_251" type="typeWE" route="up_down" depart="963" />
    <vehicle id="up_down_252" type="typeWE" route="up_down" depart="964" />
    <vehicle id="up_down_253" type="typeWE" route="up_down" depart="971" />
    <vehicle id="left_right_254" type="typeWE" route="left_right" depart="972" />
    <vehicle id="left_right_255" type="typeWE" route="left_right" depart="977" />
    <vehicle id="left_down_256" type="typeWE" route="left_down" depart="979" />
    <vehicle id="down_up_257" type="typeWE" route="down_up" depart="983" />
    <vehicle id="up_down_258" type="typeWE" route="up_down" depart="984" />
    <vehicle id="right_up_259" type="typeWE" route="right_up" depart="991" />
    <vehicle id="down_up_260" type="typeWE" route="down_up" depart="991" />
    <vehicle id="down_up_261" type="typeWE" route="down_up" depart="998" />
    <vehicle id="left_right_262" type="typeWE" route="left_right" depart="1000" />
    <vehicle id="down_up_263" type="typeWE" route="down_up" depart="1005" />
    <vehicle id="down_up_264" type="typeWE" route="down_up" depart="1008" />
    <vehicle id="down_up_265" type="typeWE" route="down_up" depart="1013" />
    <vehicle id="down_up_266" type="typeWE" route="down_up" depart="1014" />
    <vehicle id="right_left_267" type="typeWE" route="right_left" depart="1015" />
    <vehicle id="right_left_268" type="typeWE" route="right_left" depart="1016" />
    <vehicle id="down_up_269" type="typeWE" route="down_up" depart="1018" />
    <vehicle id="left_right_270" type="typeWE" route="left_right" depart="1029" />
    <vehicle id="up_left_271" type="typeWE" route="up_left" depart="1043" />
    <vehicle id="up_down_272" type="typeWE" route="up_down" depart="1059" />
    <vehicle id="up_down_273" type="typeWE" route="up_down" depart="1073" />
    <vehicle id="left_right_274" type="typeWE" route="left_right" depart="1082" />
    <vehicle id="left_right_275" type="typeWE" route="left_right" depart="1092" />
    <vehicle id="up_down_276" type="typeWE" route="up_down" depart="1096" />
    <vehicle id="left_down_277" type="typeWE" route="left_down" depart="1101" />
    <vehicle id="down_up_278" type="typeWE" route="down_up" depart="1101" />
    <vehicle id="up_down_279" type="typeWE" route="up_down" depart="1109" />
    <vehicle id="right_down_280" type="typeWE" route="right_down" depart="1112" />
    <vehicle id="down_up_281" type="typeWE" route="down_up" depart="1118" />
    <vehicle id="left_right_282" type="typeWE" route="left_right" depart="1125" />
    <vehicle id="right_left_283" type="typeWE" route="right_left" depart="1131" />
    <vehicle id="down_up_284" type="typeWE" route="down_up" depart="1131" />
    <vehicle id="left_right_285" type="typeWE" route="left_right" depart="1138" />
    <vehicle id="left_up_286" type="typeWE" route="left_up" depart="1142" />
    <vehicle id="down_up_287" type="typeWE" route="down_up" depart="1142" />
    <vehicle id="down_right_288" type="typeWE" route="down_right" depart="1160" />
    <vehicle id="down_up_289" type="typeWE" route="down_up" depart="1162" />
    <vehicle id="down_up_290" type="typeWE" route="down_up" depart="1163" />
    <vehicle id="right_left_291" type="typeWE" route="right_left" depart="1179" />
    <vehicle id="right_left_292" type="typeWE" route="right_left" depart="1184" />
    <vehicle id="left_right_293" type="typeWE" route="left_right" depart="1187" />
    <vehicle id="right_left_294" type="typeWE" route="right_left" depart="1188" />
    <vehicle id="right_left_295" type="typeWE" route="right_left" depart="1189" />
    <vehicle id="left_right_296" type="typeWE" route="left_right" depart="1200" />
    <vehicle id="right_left_297" type="typeWE" route="right_left" depart="1209" />
    <vehicle id="up_down_298" type="typeWE" route="up_down" depart="1210" />
    <vehicle id="up_down_299" type="typeWE" route="up_down" depart="1213" />
    <vehicle id="up_down_300" type="typeWE" route="up_down" depart="1222" />
    <vehicle id="up_down_301" type="typeWE" route="up_down" depart="1223" />
    <vehicle id="down_up_302" type="typeWE" route="down_up" depart="1225" />
    <vehicle id="right_left_303" type="typeWE" route="right_left" depart="1228" />
    <vehicle id="down_up_304" type="typeWE" route="down_up" depart="1242" />
    <vehicle id="left_down_305" type="typeWE" route="left_down" depart="1243" />
    <vehicle id="left_right_306" type="typeWE" route="left_right" depart="1253" />
    <vehicle id="up_down_307" type="typeWE" route="up_down" depart="1253" />
    <vehicle id="left_right_308" type="typeWE" route="left_right" depart="1255" />
    <vehicle id="up_down_309" type="typeWE" route="up_down" depart="1257" />
    <vehicle id="down_up_310" type="typeWE" route="down_up" depart="1261" />
    <vehicle id="up_down_311" type="typeWE" route="up_down" depart="1267" />
    <vehicle id="left_right_312" type="typeWE" route="left_right" depart="1279" />
    <vehicle id="left_down_313" type="typeWE" route="left_down" depart="1289" />
    <vehicle id="left_up_314" type="typeWE" route="left_up" depart="1291" />
    <vehicle id="right_left_315" type="typeWE" route="right_left" depart="1293" />
    <vehicle id="up_down_316" type="typeWE" route="up_down" depart="1293" />
    <vehicle id="down_up_317" type="typeWE" route="down_up" depart="1303" />
    <vehicle id="up_down_318" type="typeWE" route="up_down" depart="1310" />
    <vehicle id="down_right_319" type="typeWE" route="down_right" depart="1318" />
    <vehicle id="right_left_320" type="typeWE" route="right_left" depart="1319" />
    <vehicle id="up_down_321" type="typeWE" route="up_down" depart="1324" />
    <vehicle id="down_up_322" type="typeWE" route="down_up" depart="1327" />
    <vehicle id="right_left_323" type="typeWE" route="right_left" depart="1329" />
    <vehicle id="up_left_324" type="typeWE" route="up_left" depart="1330" />
    <vehicle id="left_right_325" type="typeWE" route="left_right" depart="1336" />
    <vehicle id="left_right_326" type="typeWE" route="left_right" depart="1339" />
    <vehicle id="down_up_327" type="typeWE" route="down_up" depart="1342" />
    <vehicle id="left_right_328" type="typeWE" route="left_right" depart="1348" />
    <vehicle id="up_down_329" type="typeWE" route="up_down" depart="1351" />
    <vehicle id="down_right_330" type="typeWE" route="down_right" depart="1352" />
    <vehicle id="down_up_331" type="typeWE" route="down_up" depart="1353" />
    <vehicle id="up_down_332" type="typeWE" route="up_down" depart="1354" />
    <vehicle id="up_down_333" type="typeWE" route="up_down" depart="1357" />
    <vehicle id="left_right_334" type="typeWE" route="left_right" depart="1372" />
    <vehicle id="left_right_335" type="typeWE" route="left_right" depart="1384" />
    <vehicle id="up_right_336" type="typeWE" route="up_right" depart="1384" />
    <vehicle id="left_down_337" type="typeWE" route="left_down" depart="1385" />
    <vehicle id="down_up_338" type="typeWE" route="down_up" depart="1385" />
    <vehicle id="down_up_339" type="typeWE" route="down_up" depart="1388" />
    <vehicle id="left_right_340" type="typeWE" route="left_right" depart="1402" />
    <vehicle id="up_down_341" type="typeWE" route="up_down" depart="1406" />
    <vehicle id="down_up_342" type="typeWE" route="down_up" depart="1406" />
    <vehicle id="up_down_343" type="typeWE" route="up_down" depart="1408" />
    <vehicle id="down_left_344" type="typeWE" route="down_left" depart="1412" />
    <vehicle id="up_down_345" type="typeWE" route="up_down" depart="1417" />
    <vehicle id="left_right_346" type="typeWE" route="left_right" depart="1420" />
    <vehicle id="up_down_347" type="typeWE" route="up_down" depart="1420" />
    <vehicle id="down_up_348" type="typeWE" route="down_up" depart="1420" />
    <vehicle id="right_left_349" type="typeWE" route="right_left" depart="1426" />
    <vehicle id="up_right_350" type="typeWE" route="up_right" depart="1432" />
    <vehicle id="down_up_351" type="typeWE" route="down_up" depart="1444" />
    <vehicle id="right_down_352" type="typeWE" route="right_down" depart="1459" />
    <vehicle id="down_up_353" type="typeWE" route="down_up" depart="1469" />
    <vehicle id="left_right_354" type="typeWE" route="left_right" depart="1472" />
    <vehicle id="down_up_355" type="typeWE" route="down_up" depart="1474" />
    <vehicle id="left_right_356" type="typeWE" route="left_right" depart="1475" />
    <vehicle id="right_left_357" type="typeWE" route="right_left" depart="1481" />
    <vehicle id="right_down_358" type="typeWE" route="right_down" depart="1485" />
    <vehicle id="up_down_359" type="typeWE" route="up_down" depart="1485" />
    <vehicle id="down_up_360" type="typeWE" route="down_up" depart="1487" />
    <vehicle id="up_down_361" type="typeWE" route="up_down" depart="1488" />
    <vehicle id="up_down_362" type="typeWE" route="up_down" depart="1497" />
    <vehicle id="down_left_363" type="typeWE" route="down_left" depart="1498" />
    <vehicle id="right_down_364" type="typeWE" route="right_down" depart="1499" />
    <vehicle id="down_up_365" type="typeWE" route="down_up" depart="1505" />
    <vehicle id="left_right_366" type="typeWE" route="left_right" depart="1509" />
    <vehicle id="right_up_367" type="typeWE" route="right_up" depart="1518" />
    <vehicle id="left_right_368" type="typeWE" route="left_right" depart="1520" />
    <vehicle id="left_down_369" type="typeWE" route="left_down" depart="1523" />
    <vehicle id="right_up_370" type="typeWE" route="right_up" depart="1524" />
    <vehicle id="down_up_371" type="typeWE" route="down_up" depart="1524" />