<routes>
        <vType id="typeWE" accel="2.5" decel="4.5" sigma="0.5" length="5" minGap="2.5" maxSpeed="40" guiShape="passenger"/>

        <route id="left_up" edges="E4 -E2 -E1 -E5"/>
        <route id="left_right" edges="E4 -E2 -E3 -E6"/>
        <route id="left_down" edges="E4 -E2 E0 -E7"/>

        <route id="right_up" edges="E6 E3 -E1 -E5"/>
        <route id="right_left" edges="E6 E3 E2 -E4"/>
        <route id="right_down" edges="E6 E3 E0 -E7"/>

        <route id="down_up" edges="E7 -E0 -E1 -E5"/>
        <route id="down_left" edges="E7 -E0 E2 -E4"/>
        <route id="down_right" edges="E7 -E0 -E3 -E6"/>

        <route id="up_down" edges="E5 E1 E0 -E7"/>
        <route id="up_left" edges="E5 E1 E2 -E4"/>
        <route id="up_right" edges="E5 E1 -E3 -E6"/>
    <vehicle id="up_down_0" type="typeWE" route="up_down" depart="1" />
    <vehicle id="down_up_1" type="typeWE" route="down_up" depart="1" />
    <vehicle id="down_left_2" type="typeWE" route="down_left" depart="4" />
    <vehicle id="up_down_3" type="typeWE" route="up_down" depart="7" />
    <vehicle id="left_right_4" type="typeWE" route="left_right" depart="13" />
    <vehicle id="right_left_5" type="typeWE" route="right_left" depart="18" />
    <vehicle id="left_right_6" type="typeWE" route="left_right" depart="25" />
    <vehicle id="up_down_7" type="typeWE" route="up_down" depart="29" />
    <vehicle id="up_down_8" type="typeWE" route="up_down" depart="30" />
    <vehicle id="right_down_9" type="typeWE" route="right_down" depart="31" />
    <vehicle id="up_left_10" type="typeWE" route="up_left" depart="35" />
    <vehicle id="up_down_11" type="typeWE" route="up_down" depart="36" />
    <vehicle id="down_up_12" type="typeWE" route="down_up" depart="41" />
    <vehicle id="up_left_13" type="typeWE" route="up_left" depart="53" />
    <vehicle id="down_up_14" type="typeWE" route="down_up" depart="59" />
    <vehicle id="right_left_15" type="typeWE" route="right_left" depart="60" />
    <vehicle id="down_up_16" type="typeWE" route="down_up" depart="75" />
    <vehicle id="right_left_17" type="typeWE" route="right_left" depart="76" />
    <vehicle id="up_down_18" type="typeWE" route="up_down" depart="78" />
    <vehicle id="up_down_19" type="typeWE" route="up_down" depart="81" />
    <vehicle id="up_right_20" type="typeWE" route="up_right" depart="83" />
    <vehicle id="up_down_21" type="typeWE" route="up_down" depart="88" />
    <vehicle id="down_up_22" type="typeWE" route="down_up" depart="88" />
    <vehicle id="down_up_23" type="typeWE" route="down_up" depart="93" />
    <vehicle id="up_down_24" type="typeWE" route="up_down" depart="99" />
    <vehicle id="down_up_25" type="typeWE" route="down_up" depart="100" />
    <vehicle id="up_down_26" type="typeWE" route="up_down" depart="101" />
    <vehicle id="right_down_27" type="typeWE" route="right_down" depart="105" />
    <vehicle id="right_left_28" type="typeWE" route="right_left" depart="109" />
    <vehicle id="up_down_29" type="typeWE" route="up_down" depart="111" />
    <vehicle id="down_up_30" type="typeWE" route="down_up" depart="112" />
    <vehicle id="left_right_31" type="typeWE" route="left_right" depart="118" />
    <vehicle id="up_down_32" type="typeWE" route="up_down" depart="121" />
    <vehicle id="up_down_33" type="typeWE" route="up_down" depart="126" />
    <vehicle id="up_down_34" type="typeWE" route="up_down" depart="128" />
    <vehicle id="left_right_35" type="typeWE" route="left_right" depart="132" />
    <vehicle id="right_left_36" type="typeWE" route="right_left" depart="136" />
    <vehicle id="up_left_37" type="typeWE" route="up_left" depart="137" />
    <vehicle id="up_down_38" type="typeWE" route="up_down" depart="146" />
    <vehicle id="left_right_39" type="typeWE" route="left_right" depart="150" />
    <vehicle id="right_left_40" type="typeWE" route="right_left" depart="151" />
    <vehicle id="right_left_41" type="typeWE" route="right_left" depart="155" />
    <vehicle id="right_left_42" type="typeWE" route="right_left" depart="159" />
    <vehicle id="left_right_43" type="typeWE" route="left_right" depart="162" />
    <vehicle id="down_up_44" type="typeWE" route="down_up" depart="163" />
    <vehicle id="up_down_45" type="typeWE" route="up_down" depart="170" />
    <vehicle id="right_left_46" type="typeWE" route="right_left" depart="173" />
    <vehicle id="up_down_47" type="typeWE" route="up_down" depart="174" />
    <vehicle id="down_up_48" type="typeWE" route="down_up" depart="178" />
    <vehicle id="up_down_49" type="typeWE" route="up_down" depart="179" />
    <vehicle id="left_right_50" type="typeWE" route="left_right" depart="183" />
    <vehicle id="left_right_51" type="typeWE" route="left_right" depart="184" />
    <vehicle id="left_right_52" type="typeWE" route="left_right" depart="190" />
    <vehicle id="down_up_53" type="typeWE" route="down_up" depart="200" />
    <vehicle id="up_down_54" type="typeWE" route="up_down" depart="206" />
    <vehicle id="down_right_55" type="typeWE" route="down_right" depart="213" />
    <vehicle id="up_down_56" type="typeWE" route="up_down" depart="215" />
    <vehicle id="up_left_57" type="typeWE" route="up_left" depart="220" />
    <vehicle id="up_down_58" type="typeWE" route="up_down" depart="225" />
    <vehicle id="left_up_59" type="typeWE" route="left_up" depart="226" />
    <vehicle id="left_right_60" type="typeWE" route="left_right" depart="229" />
    <vehicle id="up_down_61" type="typeWE" route="up_down" depart="232" />
    <vehicle id="down_up_62" type="typeWE" route="down_up" depart="233" />
    <vehicle id="down_up_63" type="typeWE" route="down_up" depart="237" />
    <vehicle id="left_right_64" type="typeWE" route="left_right" depart="241" />
    <vehicle id="left_up_65" type="typeWE" route="left_up" depart="248" />
    <vehicle id="down_up_66" type="typeWE" route="down_up" depart="249" />
    <vehicle id="left_right_67" type="typeWE" route="left_right" depart="252" />
    <vehicle id="left_right_68" type="typeWE" route="left_right" depart="257" />
    <vehicle id="down_up_69" type="typeWE" route="down_up" depart="260" />
    <vehicle id="up_right_70" type="typeWE" route="up_right" depart="263" />
    <vehicle id="right_down_71" type="typeWE" route="right_down" depart="264" />
    <vehicle id="right_left_72" type="typeWE" route="right_left" depart="266" />
    <vehicle id="left_right_73" type="typeWE" route="left_right" depart="270" />
    <vehicle id="down_up_74" type="typeWE" route="down_up" depart="276" />
    <vehicle id="down_up_75" type="typeWE" route="down_up" depart="277" />
    <vehicle id="right_down_76" type="typeWE" route="right_down" depart="282" />
    <vehicle id="right_left_77" type="typeWE" route="right_left" depart="285" />
    <vehicle id="up_down_78" type="typeWE" route="up_down" depart="287" />
    <vehicle id="right_left_79" type="typeWE" route="right_left" depart="290" />
    <vehicle id="left_right_80" type="typeWE" route="left_right" depart="291" />
    <vehicle id="up_down_81" type="typeWE" route="up_down" depart="297" />
    <vehicle id="down_up_82" type="typeWE" route="down_up" depart="310" />
    <vehicle id="down_up_83" type="typeWE" route="down_up" depart="321" />
    <vehicle id="left_right_84" type="typeWE" route="left_right" depart="328" />
    <vehicle id="right_left_85" type="typeWE" route="right_left" depart="337" />
    <vehicle id="down_up_86" type="typeWE" route="down_up" depart="341" />
    <vehicle id="up_down_87" type="typeWE" route="up_down" depart="349" />
    <vehicle id="left_up_88" type="typeWE" route="left_up" depart="351" />
    <vehicle id="down_up_89" type="typeWE" route="down_up" depart="353" />
    <vehicle id="down_up_90" type="typeWE" route="down_up" depart="355" />
    <vehicle id="down_up_91" type="typeWE" route="down_up" depart="362" />
    <vehicle id="up_down_92" type="typeWE" route="up_down" depart="363" />
    <vehicle id="down_up_93" type="typeWE" route="down_up" depart="363" />
    <vehicle id="right_left_94" type="typeWE" route="right_left" depart="368" />
    <vehicle id="down_up_95" type="typeWE" route="down_up" depart="371" />
    <vehicle id="left_right_96" type="typeWE" route="left_right" depart="372" />
    <vehicle id="right_left_97" type="typeWE" route="right_left" depart="373" />
    <vehicle id="down_up_98" type="typeWE" route="down_up" depart="375" />
    <vehicle id="up_down_99" type="typeWE" route="up_down" depart="377" />
    <vehicle id="up_down_100" type="typeWE" route="up_down" depart="378" />
    <vehicle id="up_down_101" type="typeWE" route="up_down" depart="381" />
    <vehicle id="down_up_102" type="typeWE" route="down_up" depart="383" />
    <vehicle id="down_right_103" type="typeWE" route="down_right" depart="387" />
    <vehicle id="left_right_104" type="typeWE" route="left_right" depart="392" />
    <vehicle id="right_down_105" type="typeWE" route="right_down" depart="393" />
    <vehicle id="right_up_106" type="typeWE" route="right_up" depart="404" />
    <vehicle id="up_down_107" type="typeWE" route="up_down" depart="406" />
    <vehicle id="down_up_108" type="typeWE" route="down_up" depart="409" />
    <vehicle id="up_down_109" type="typeWE" route="up_down" depart="410" />
    <vehicle id="down_up_110" type="typeWE" route="down_up" depart="411" />
    <vehicle id="up_down_111" type="typeWE" route="up_down" depart="415" />
    <vehicle id="down_up_112" type="typeWE" route="down_up" depart="416" />
    <vehicle id="down_up_113" type="typeWE" route="down_up" depart="417" />
    <vehicle id="down_up_114" type="typeWE" route="down_up" depart="421" />
    <vehicle id="right_up_115" type="typeWE" route="right_up" depart="422" />
    <vehicle id="down_up_116" type="typeWE" route="down_up" depart="426" />
    <vehicle id="down_left_117" type="typeWE" route="down_left" depart="430" />
    <vehicle id="right_down_118" type="typeWE" route="right_down" depart="435" />
    <vehicle id="left_up_119" type="typeWE" route="left_up" depart="436" />
    <vehicle id="down_up_120" type="typeWE" route="down_up" depart="441" />
    <vehicle id="up_right_121" type="typeWE" route="up_right" depart="442" />
    <vehicle id="down_right_122" type="typeWE" route="down_right" depart="443" />
    <vehicle id="right_left_123" type="typeWE" route="right_left" depart="446" />
    <vehicle id="down_right_124" type="typeWE" route="down_right" depart="450" />
    <vehicle id="right_left_125" type="typeWE" route="right_left" depart="452" />
    <vehicle id="left_right_126" type="typeWE" route="left_right" depart="453" />
    <vehicle id="down_up_127" type="typeWE" route="down_up" depart="454" />
    <vehicle id="up_down_128" type="typeWE" route="up_down" depart="462" />
    <vehicle id="right_left_129" type="typeWE" route="right_left" depart="465" />
    <vehicle id="right_left_130" type="typeWE" route="right_left" depart="467" />
    <vehicle id="down_up_131" type="typeWE" route="down_up" depart="478" />
    <vehicle id="right_left_132" type="typeWE" route="right_left" depart="488" />
    <vehicle id="right_left_133" type="typeWE" route="right_left" depart="497" />
    <vehicle id="down_up_134" type="typeWE" route="down_up" depart="510" />
    <vehicle id="down_up_135" type="typeWE" route="down_up" depart="511" />
    <vehicle id="up_down_136" type="typeWE" route="up_down" depart="517" />
    <vehicle id="down_left_137" type="typeWE" route="down_left" depart="520" />
    <vehicle id="right_up_138" type="typeWE" route="right_up" depart="522" />
    <vehicle id="up_down_139" type="typeWE" route="up_down" depart="529" />
    <vehicle id="right_left_140" type="typeWE" route="right_left" depart="531" />
    <vehicle id="right_left_141" type="typeWE" route="right_left" depart="547" />
    <vehicle id="left_right_142" type="typeWE" route="left_right" depart="551" />
    <vehicle id="right_left_143" type="typeWE" route="right_left" depart="552" />
    <vehicle id="down_left_144" type="typeWE" route="down_left" depart="554" />
    <vehicle id="up_right_145" type="typeWE" route="up_right" depart="555" />
    <vehicle id="left_right_146" type="typeWE" route="left_right" depart="556" />
    <vehicle id="left_right_147" type="typeWE" route="left_right" depart="563" />
    <vehicle id="up_down_148" type="typeWE" route="up_down" depart="575" />
    <vehicle id="up_left_149" type="typeWE" route="up_left" depart="578" />
    <vehicle id="up_down_150" type="typeWE" route="up_down" depart="580" />
    <vehicle id="up_down_151" type="typeWE" route="up_down" depart="585" />
    <vehicle id="down_up_152" type="typeWE" route="down_up" depart="589" />
    <vehicle id="up_right_153" type="typeWE" route="up_right" depart="590" />
    <vehicle id="down_up_154" type="typeWE" route="down_up" depart="597" />
    <vehicle id="right_left_155" type="typeWE" route="right_left" depart="600" />
    <vehicle id="down_up_156" type="typeWE" route="down_up" depart="607" />
    <vehicle id="down_up_157" type="typeWE" route="down_up" depart="612" />
    <vehicle id="right_left_158" type="typeWE" route="right_left" depart="618" />
    <vehicle id="up_down_159" type="typeWE" route="up_down" depart="621" />
    <vehicle id="down_up_160" type="typeWE" route="down_up" depart="624" />
    <vehicle id="left_right_161" type="typeWE" route="left_right" depart="626" />
    <vehicle id="down_up_162" type="typeWE" route="down_up" depart="629" />
    <vehicle id="right_left_163" type="typeWE" route="right_left" depart="631" />
    <vehicle id="down_up_164" type="typeWE" route="down_up" depart="631" />
    <vehicle id="right_left_165" type="typeWE" route="right_left" depart="632" />
    <vehicle id="down_up_166" type="typeWE" route="down_up" depart="634" />
    <vehicle id="down_up_167" type="typeWE" route="down_up" depart="639" />
    <vehicle id="left_up_168" type="typeWE" route="left_up" depart="642" />
    <vehicle id="up_down_169" type="typeWE" route="up_down" depart="643" />
    <vehicle id="up_down_170" type="typeWE" route="up_down" depart="647" />
    <vehicle id="up_down_171" type="typeWE" route="up_down" depart="648" />
    <vehicle id="down_left_172" type="typeWE" route="down_left" depart="651" />
    <vehicle id="down_up_173" type="typeWE" route="down_up" depart="655" />
    <vehicle id="left_right_174" type="typeWE" route="left_right" depart="656" />
    <vehicle id="up_left_175" type="typeWE" route="up_left" depart="657" />
    <vehicle id="right_left_176" type="typeWE" route="right_left" depart="658" />
    <vehicle id="up_down_177" type="typeWE" route="up_down" depart="665" />
    <vehicle id="up_down_178" type="typeWE" route="up_down" depart="667" />
    <vehicle id="down_up_179" type="typeWE" route="down_up" depart="667" />
    <vehicle id="right_left_180" type="typeWE" route="right_left" depart="670" />
    <vehicle id="left_right_181" type="typeWE" route="left_right" depart="685" />
    <vehicle id="up_left_182" type="typeWE" route="up_left" depart="685" />
    <vehicle id="up_down_183" type="typeWE" route="up_down" depart="688" />
    <vehicle id="right_left_184" type="typeWE" route="right_left" depart="689" />
    <vehicle id="right_up_185" type="typeWE" route="right_up" depart="690" />
    <vehicle id="up_down_186" type="typeWE" route="up_down" depart="696" />
    <vehicle id="up_down_187" type="typeWE" route="up_down" depart="697" />
    <vehicle id="down_up_188" type="typeWE" route="down_up" depart="701" />
    <vehicle id="up_down_189" type="typeWE" route="up_down" depart="704" />
    <vehicle id="left_right_190" type="typeWE" route="left_right" depart="706" />
    <vehicle id="left_right_191" type="typeWE" route="left_right" depart="716" />
    <vehicle id="down_up_192" type="typeWE" route="down_up" depart="722" />
    <vehicle id="left_right_193" type="typeWE" route="left_right" depart="727" />
    <vehicle id="left_right_194" type="typeWE" route="left_right" depart="733" />
    <vehicle id="up_down_195" type="typeWE" route="up_down" depart="736" />
    <vehicle id="up_down_196" type="typeWE" route="up_down" depart="739" />
    <vehicle id="down_right_197" type="typeWE" route="down_right" depart="742" />
    <vehicle id="down_up_198" type="typeWE" route="down_up" depart="746" />
    <vehicle id="down_up_199" type="typeWE" route="down_up" depart="760" />
    <vehicle id="left_up_200" type="typeWE" route="left_up" depart="761" />
    <vehicle id="up_down_201" type="typeWE" route="up_down" depart="764" />
    <vehicle id="down_up_202" type="typeWE" route="down_up" depart="772" />
    <vehicle id="down_up_203" type="typeWE" route="down_up" depart="777" />
    <vehicle id="up_left_204" type="typeWE" route="up_left" depart="786" />
    <vehicle id="down_up_205" type="typeWE" route="down_up" depart="788" />
    <vehicle id="right_left_206" type="typeWE" route="right_left" depart="792" />
    <vehicle id="left_down_207" type="typeWE" route="left_down" depart="794" />
    <vehicle id="left_right_208" type="typeWE" route="left_right" depart="813" />
    <vehicle id="right_left_209" type="typeWE" route="right_left" depart="813" />
    <vehicle id="left_up_210" type="typeWE" route="left_up" depart="818" />
    <vehicle id="up_down_211" type="typeWE" route="up_down" depart="822" />
    <vehicle id="up_right_212" type="typeWE" route="up_right" depart="829" />
    <vehicle id="up_down_213" type="typeWE" route="up_down" depart="831" />
    <vehicle id="right_left_214" type="typeWE" route="right_left" depart="833" />
    <vehicle id="up_down_215" type="typeWE" route="up_down" depart="840" />
    <vehicle id="down_left_216" type="typeWE" route="down_left" depart="849" />
    <vehicle id="down_up_217" type="typeWE" route="down_up" depart="868" />
    <vehicle id="up_down_218" type="typeWE" route="up_down" depart="869" />
    <vehicle id="right_down_219" type="typeWE" route="right_down" depart="870" />
    <vehicle id="up_down_220" type="typeWE" route="up_down" depart="873" />
    <vehicle id="down_up_221" type="typeWE" route="down_up" depart="873" />
    <vehicle id="down_up_222" type="typeWE" route="down_up" depart="877" />
    <vehicle id="down_left_223" type="typeWE" route="down_left" depart="884" />
    <vehicle id="left_right_224" type="typeWE" route="left_right" depart="887" />
    <vehicle id="right_up_225" type="typeWE" route="right_up" depart="892" />
    <vehicle id="down_up_226" type="typeWE" route="down_up" depart="894" />
    <vehicle id="up_right_227" type="typeWE" route="up_right" depart="895" />
    <vehicle id="right_down_228" type="typeWE" route="right_down" depart="896" />
    <vehicle id="down_up_229" type="typeWE" route="down_up" depart="896" />
    <vehicle id="down_up_230" type="typeWE" route="down_up" depart="901" />
    <vehicle id="up_down_231" type="typeWE" route="up_down" depart="904" />
    <vehicle id="up_down_232" type="typeWE" route="up_down" depart="906" />
    <vehicle id="right_left_233" type="typeWE" route="right_left" depart="907" />
    <vehicle id="down_up_234" type="typeWE" route="down_up" depart="909" />
    <vehicle id="down_left_235" type="typeWE" route="down_left" depart="912" />
    <vehicle id="down_up_236" type="typeWE" route="down_up" depart="914" />
    <vehicle id="up_down_237" type="typeWE" route="up_down" depart="915" />
    <vehicle id="down_left_238" type="typeWE" route="down_left" depart="915" />
    <vehicle id="up_down_239" type="typeWE" route="up_down" depart="921" />
    <vehicle id="right_left_240" type="typeWE" route="right_left" depart="925" />
    <vehicle id="right_left_241" type="typeWE" route="right_left" depart="931" />
    <vehicle id="up_down_242" type="typeWE" route="up_down" depart="938" />
    <vehicle id="right_left_243" type="typeWE" route="right_left" depart="941" />
    <vehicle id="down_up_244" type="typeWE" route="down_up" depart="943" />
    <vehicle id="left_right_245" type="typeWE" route="left_right" depart="944" />
    <vehicle id="down_left_246" type="typeWE" route="down_left" depart="948" />
    <vehicle id="right_left_247" type="typeWE" route="right_left" depart="950" />
    <vehicle id="down_up_248" type="typeWE" route="down_up" depart="953" />
    <vehicle id="left_right_249" type="typeWE" route="left_right" depart="960" />
    <vehicle id="down_up_250" type="typeWE" route="down_up" depart="960" />
    <vehicle id="up_down_251" type="typeWE" route="up_down" depart="963" />
    <vehicle id="up_down_252" type="typeWE" route="up_down" depart="964" />
    <vehicle id="up_down_253" type="typeWE" route="up_down" depart="971" />
    <vehicle id="left_right_254" type="typeWE" route="left_right" depart="972" />
    <vehicle id="left_right_255" type="typeWE" route="left_right" depart="977" />
    <vehicle id="left_down_256" type="typeWE" route="left_down" depart="979" />
    <vehicle id="down_up_257" type="typeWE" route="down_up" depart="983" />
    <vehicle id="up_down_258" type="typeWE" route="up_down" depart="984" />
    <vehicle id="right_up_259" type="typeWE" route="right_up" depart="991" />
    <vehicle id="down_up_260" type="typeWE" route="down_up" depart="991" />
    <vehicle id="down_up_261" type="typeWE" route="down_up" depart="998" />
    <vehicle id="left_right_262" type="typeWE" route="left_right" depart="1000" />
    <vehicle id="down_up_263" type="typeWE" route="down_up" depart="1005" />
    <vehicle id="up_down_264" type="typeWE" route="up_down" depart="1006" />
    <vehicle id="up_down_265" type="typeWE" route="up_down" depart="1008" />
    <vehicle id="up_down_266" type="typeWE" route="up_down" depart="1013" />
    <vehicle id="up_down_267" type="typeWE" route="up_down" depart="1014" />
    <vehicle id="left_right_268" type="typeWE" route="left_right" depart="1015" />
    <vehicle id="left_right_269" type="typeWE" route="left_right" depart="1016" />
    <vehicle id="up_down_270" type="typeWE" route="up_down" depart="1018" />
    <vehicle id="down_up_271" type="typeWE" route="down_up" depart="1021" />
    <vehicle id="up_down_272" type="typeWE" route="up_down" depart="1028" />
    <vehicle id="down_up_273" type="typeWE" route="down_up" depart="1033" />
    <vehicle id="right_left_274" type="typeWE" route="right_left" depart="1034" />
    <vehicle id="down_up_275" type="typeWE" route="down_up" depart="1037" />
    <vehicle id="right_up_276" type="typeWE" route="right_up" depart="1042" />
    <vehicle id="down_up_277" type="typeWE" route="down_up" depart="1043" />
    <vehicle id="up_down_278" type="typeWE" route="up_down" depart="1045" />
    <vehicle id="up_down_279" type="typeWE" route="up_down" depart="1046" />
    <vehicle id="up_down_280" type="typeWE" route="up_down" depart="1057" />
    <vehicle id="right_down_281" type="typeWE" route="right_down" depart="1068" />
    <vehicle id="right_left_282" type="typeWE" route="right_left" depart="1071" />
    <vehicle id="down_up_283" type="typeWE" route="down_up" depart="1071" />
    <vehicle id="up_down_284" type="typeWE" route="up_down" depart="1079" />
    <vehicle id="up_down_285" type="typeWE" route="up_down" depart="1089" />
    <vehicle id="left_right_286" type="typeWE" route="left_right" depart="1094" />
    <vehicle id="up_left_287" type="typeWE" route="up_left" depart="1098" />
    <vehicle id="right_down_288" type="typeWE" route="right_down" depart="1110" />
    <vehicle id="down_up_289" type="typeWE" route="down_up" depart="1116" />
    <vehicle id="left_right_290" type="typeWE" route="left_right" depart="1123" />
    <vehicle id="right_left_291" type="typeWE" route="right_left" depart="1129" />
    <vehicle id="down_up_292" type="typeWE" route="down_up" depart="1129" />
    <vehicle id="left_right_293" type="typeWE" route="left_right" depart="1136" />
    <vehicle id="left_up_294" type="typeWE" route="left_up" depart="1140" />
    <vehicle id="down_up_295" type="typeWE" route="down_up" depart="1140" />
    <vehicle id="down_right_296" type="typeWE" route="down_right" depart="1158" />
    <vehicle id="down_up_297" type="typeWE" route="down_up" depart="1160" />
    <vehicle id="down_up_298" type="typeWE" route="down_up" depart="1161" />
    <vehicle id="right_left_299" type="typeWE" route="right_left" depart="1177" />
    <vehicle id="right_left_300" type="typeWE" route="right_left" depart="1182" />
    <vehicle id="left_right_301" type="typeWE" route="left_right" depart="1185" />
    <vehicle id="right_left_302" type="typeWE" route="right_left" depart="1186" />
    <vehicle id="right_left_303" type="typeWE" route="right_left" depart="1187" />
    <vehicle id="left_right_304" type="typeWE" route="left_right" depart="1198" />
    <vehicle id="down_up_305" type="typeWE" route="down_up" depart="1208" />
    <vehicle id="down_up_306" type="typeWE" route="down_up" depart="1211" />
    <vehicle id="down_up_307" type="typeWE" route="down_up" depart="1220" />
    <vehicle id="down_up_308" type="typeWE" route="down_up" depart="1221" />
    <vehicle id="left_right_309" type="typeWE" route="left_right" depart="1224" />
    <vehicle id="up_down_310" type="typeWE" route="up_down" depart="1226" />
    <vehicle id="up_left_311" type="typeWE" route="up_left" depart="1241" />
    <vehicle id="up_down_312" type="typeWE" route="up_down" depart="1251" />
    <vehicle id="left_right_313" type="typeWE" route="left_right" depart="1252" />
    <vehicle id="up_down_314" type="typeWE" route="up_down" depart="1253" />
    <vehicle id="left_right_315" type="typeWE" route="left_right" depart="1256" />
    <vehicle id="right_left_316" type="typeWE" route="right_left" depart="1260" />
    <vehicle id="down_up_317" type="typeWE" route="down_up" depart="1261" />
    <vehicle id="down_up_318" type="typeWE" route="down_up" depart="1265" />
    <vehicle id="right_left_319" type="typeWE" route="right_left" depart="1277" />
    <vehicle id="right_up_320" type="typeWE" route="right_up" depart="1287" />
    <vehicle id="right_down_321" type="typeWE" route="right_down" depart="1289" />
    <vehicle id="up_down_322" type="typeWE" route="up_down" depart="1291" />
    <vehicle id="right_left_323" type="typeWE" route="right_left" depart="1302" />
    <vehicle id="left_right_324" type="typeWE" route="left_right" depart="1309" />
    <vehicle id="right_up_325" type="typeWE" route="right_up" depart="1317" />
    <vehicle id="down_up_326" type="typeWE" route="down_up" depart="1317" />
    <vehicle id="down_up_327" type="typeWE" route="down_up" depart="1320" />
    <vehicle id="down_up_328" type="typeWE" route="down_up" depart="1322" />
    <vehicle id="left_right_329" type="typeWE" route="left_right" depart="1326" />
    <vehicle id="up_down_330" type="typeWE" route="up_down" depart="1327" />
    <vehicle id="down_right_331" type="typeWE" route="down_right" depart="1328" />
    <vehicle id="right_left_332" type="typeWE" route="right_left" depart="1334" />
    <vehicle id="right_left_333" type="typeWE" route="right_left" depart="1337" />
    <vehicle id="up_left_334" type="typeWE" route="up_left" depart="1340" />
    <vehicle id="down_up_335" type="typeWE" route="down_up" depart="1340" />
    <vehicle id="left_right_336" type="typeWE" route="left_right" depart="1346" />
    <vehicle id="up_down_337" type="typeWE" route="up_down" depart="1349" />
    <vehicle id="down_right_338" type="typeWE" route="down_right" depart="1350" />
    <vehicle id="down_up_339" type="typeWE" route="down_up" depart="1351" />
    <vehicle id="up_down_340" type="typeWE" route="up_down" depart="1352" />
    <vehicle id="up_down_341" type="typeWE" route="up_down" depart="1355" />
    <vehicle id="left_right_342" type="typeWE" route="left_right" depart="1370" />
    <vehicle id="left_right_343" type="typeWE" route="left_right" depart="1382" />
    <vehicle id="up_right_344" type="typeWE" route="up_right" depart="1382" />
    <vehicle id="left_down_345" type="typeWE" route="left_down" depart="1383" />
    <vehicle id="down_up_346" type="typeWE" route="down_up" depart="1383" />
    <vehicle id="down_up_347" type="typeWE" route="down_up" depart="1386" />
    <vehicle id="left_right_348" type="typeWE" route="left_right" depart="1400" />
    <vehicle id="up_down_349" type="typeWE" route="up_down" depart="1404" />
    <vehicle id="down_up_350" type="typeWE" route="down_up" depart="1404" />
    <vehicle id="up_down_351" type="typeWE" route="up_down" depart="1406" />
    <vehicle id="down_left_352" type="typeWE" route="down_left" depart="1410" />
    <vehicle id="up_down_353" type="typeWE" route="up_down" depart="1415" />
    <vehicle id="left_right_354" type="typeWE" route="left_right" depart="1418" />
    <vehicle id="up_down_355" type="typeWE" route="up_down" depart="1418" />
    <vehicle id="down_up_356" type="typeWE" route="down_up" depart="1418" />
    <vehicle id="right_left_357" type="typeWE" route="right_left" depart="1424" />
    <vehicle id="up_right_358" type="typeWE" route="up_right" depart="1430" />
    <vehicle id="down_up_359" type="typeWE" route="down_up" depart="1442" />
    <vehicle id="right_down_360" type="typeWE" route="right_down" depart="1457" />
    <vehicle id="down_up_361" type="typeWE" route="down_up" depart="1467" />
    <vehicle id="left_right_362" type="typeWE" route="left_right" depart="1470" />
    <vehicle id="down_up_363" type="typeWE" route="down_up" depart="1471" />
    <vehicle id="up_down_364" type="typeWE" route="up_down" depart="1472" />
    <vehicle id="down_up_365" type="typeWE" route="down_up" depart="1472" />
    <vehicle id="left_right_366" type="typeWE" route="left_right" depart="1479" />
    <vehicle id="left_up_367" type="typeWE" route="left_up" depart="1483" />
    <vehicle id="right_left_368" type="typeWE" route="right_left" depart="1483" />
    <vehicle id="up_down_369" type="typeWE" route="up_down" depart="1485" />
    <vehicle id="right_left_370" type="typeWE" route="right_left" depart="1486" />
    <vehicle id="right_left_371" type="typeWE" route="right_left" depart="1495" />
    <vehicle id="up_right_372" type="typeWE" route="up_right" depart="1496" />