<routes>
        <vType id="typeWE" accel="2.5" decel="4.5" sigma="0.5" length="5" minGap="2.5" maxSpeed="40" guiShape="passenger"/>

        <route id="left_up" edges="E4 -E2 -E1 -E5"/>
        <route id="left_right" edges="E4 -E2 -E3 -E6"/>
        <route id="left_down" edges="E4 -E2 E0 -E7"/>

        <route id="right_up" edges="E6 E3 -E1 -E5"/>
        <route id="right_left" edges="E6 E3 E2 -E4"/>
        <route id="right_down" edges="E6 E3 E0 -E7"/>

        <route id="down_up" edges="E7 -E0 -E1 -E5"/>
        <route id="down_left" edges="E7 -E0 E2 -E4"/>
        <route id="down_right" edges="E7 -E0 -E3 -E6"/>

        <route id="up_down" edges="E5 E1 E0 -E7"/>
        <route id="up_left" edges="E5 E1 E2 -E4"/>
        <route id="up_right" edges="E5 E1 -E3 -E6"/>
    <vehicle id="down_up_0" type="typeWE" route="down_up" depart="0" />
    <vehicle id="down_up_1" type="typeWE" route="down_up" depart="1" />
    <vehicle id="down_left_2" type="typeWE" route="down_left" depart="4" />
    <vehicle id="up_down_3" type="typeWE" route="up_down" depart="7" />
    <vehicle id="left_right_4" type="typeWE" route="left_right" depart="13" />
    <vehicle id="right_left_5" type="typeWE" route="right_left" depart="18" />
    <vehicle id="left_right_6" type="typeWE" route="left_right" depart="25" />
    <vehicle id="up_down_7" type="typeWE" route="up_down" depart="29" />
    <vehicle id="right_left_8" type="typeWE" route="right_left" depart="30" />
    <vehicle id="right_down_9" type="typeWE" route="right_down" depart="31" />
    <vehicle id="up_left_10" type="typeWE" route="up_left" depart="35" />
    <vehicle id="up_down_11" type="typeWE" route="up_down" depart="36" />
    <vehicle id="down_up_12" type="typeWE" route="down_up" depart="41" />
    <vehicle id="up_left_13" type="typeWE" route="up_left" depart="53" />
    <vehicle id="down_up_14" type="typeWE" route="down_up" depart="59" />
    <vehicle id="right_left_15" type="typeWE" route="right_left" depart="60" />
    <vehicle id="up_down_16" type="typeWE" route="up_down" depart="69" />
    <vehicle id="down_up_17" type="typeWE" route="down_up" depart="69" />
    <vehicle id="right_left_18" type="typeWE" route="right_left" depart="75" />
    <vehicle id="down_up_19" type="typeWE" route="down_up" depart="75" />
    <vehicle id="up_left_20" type="typeWE" route="up_left" depart="76" />
    <vehicle id="down_up_21" type="typeWE" route="down_up" depart="77" />
    <vehicle id="down_up_22" type="typeWE" route="down_up" depart="80" />
    <vehicle id="down_left_23" type="typeWE" route="down_left" depart="82" />
    <vehicle id="up_down_24" type="typeWE" route="up_down" depart="85" />
    <vehicle id="up_down_25" type="typeWE" route="up_down" depart="87" />
    <vehicle id="down_up_26" type="typeWE" route="down_up" depart="87" />
    <vehicle id="down_up_27" type="typeWE" route="down_up" depart="92" />
    <vehicle id="up_down_28" type="typeWE" route="up_down" depart="98" />
    <vehicle id="down_up_29" type="typeWE" route="down_up" depart="99" />
    <vehicle id="up_down_30" type="typeWE" route="up_down" depart="100" />
    <vehicle id="right_down_31" type="typeWE" route="right_down" depart="104" />
    <vehicle id="right_left_32" type="typeWE" route="right_left" depart="108" />
    <vehicle id="up_down_33" type="typeWE" route="up_down" depart="110" />
    <vehicle id="down_up_34" type="typeWE" route="down_up" depart="111" />
    <vehicle id="left_right_35" type="typeWE" route="left_right" depart="117" />
    <vehicle id="up_down_36" type="typeWE" route="up_down" depart="120" />
    <vehicle id="up_down_37" type="typeWE" route="up_down" depart="125" />
    <vehicle id="up_down_38" type="typeWE" route="up_down" depart="127" />
    <vehicle id="left_right_39" type="typeWE" route="left_right" depart="131" />
    <vehicle id="right_left_40" type="typeWE" route="right_left" depart="135" />
    <vehicle id="up_left_41" type="typeWE" route="up_left" depart="136" />
    <vehicle id="up_down_42" type="typeWE" route="up_down" depart="145" />
    <vehicle id="left_right_43" type="typeWE" route="left_right" depart="149" />
    <vehicle id="right_left_44" type="typeWE" route="right_left" depart="150" />
    <vehicle id="right_left_45" type="typeWE" route="right_left" depart="154" />
    <vehicle id="down_up_46" type="typeWE" route="down_up" depart="156" />
    <vehicle id="left_right_47" type="typeWE" route="left_right" depart="158" />
    <vehicle id="down_up_48" type="typeWE" route="down_up" depart="160" />
    <vehicle id="up_down_49" type="typeWE" route="up_down" depart="162" />
    <vehicle id="right_left_50" type="typeWE" route="right_left" depart="169" />
    <vehicle id="left_right_51" type="typeWE" route="left_right" depart="172" />
    <vehicle id="right_left_52" type="typeWE" route="right_left" depart="173" />
    <vehicle id="down_up_53" type="typeWE" route="down_up" depart="175" />
    <vehicle id="right_left_54" type="typeWE" route="right_left" depart="177" />
    <vehicle id="left_right_55" type="typeWE" route="left_right" depart="178" />
    <vehicle id="up_down_56" type="typeWE" route="up_down" depart="181" />
    <vehicle id="up_down_57" type="typeWE" route="up_down" depart="182" />
    <vehicle id="up_down_58" type="typeWE" route="up_down" depart="188" />
    <vehicle id="right_left_59" type="typeWE" route="right_left" depart="199" />
    <vehicle id="left_right_60" type="typeWE" route="left_right" depart="205" />
    <vehicle id="down_up_61" type="typeWE" route="down_up" depart="206" />
    <vehicle id="left_down_62" type="typeWE" route="left_down" depart="212" />
    <vehicle id="down_up_63" type="typeWE" route="down_up" depart="213" />
    <vehicle id="down_right_64" type="typeWE" route="down_right" depart="218" />
    <vehicle id="down_up_65" type="typeWE" route="down_up" depart="223" />
    <vehicle id="right_down_66" type="typeWE" route="right_down" depart="224" />
    <vehicle id="right_left_67" type="typeWE" route="right_left" depart="227" />
    <vehicle id="down_up_68" type="typeWE" route="down_up" depart="230" />
    <vehicle id="down_up_69" type="typeWE" route="down_up" depart="239" />
    <vehicle id="down_left_70" type="typeWE" route="down_left" depart="246" />
    <vehicle id="up_down_71" type="typeWE" route="up_down" depart="248" />
    <vehicle id="down_up_72" type="typeWE" route="down_up" depart="250" />
    <vehicle id="down_up_73" type="typeWE" route="down_up" depart="255" />
    <vehicle id="left_right_74" type="typeWE" route="left_right" depart="258" />
    <vehicle id="down_up_75" type="typeWE" route="down_up" depart="258" />
    <vehicle id="left_right_76" type="typeWE" route="left_right" depart="259" />
    <vehicle id="down_left_77" type="typeWE" route="down_left" depart="261" />
    <vehicle id="up_right_78" type="typeWE" route="up_right" depart="262" />
    <vehicle id="up_down_79" type="typeWE" route="up_down" depart="264" />
    <vehicle id="right_left_80" type="typeWE" route="right_left" depart="268" />
    <vehicle id="left_right_81" type="typeWE" route="left_right" depart="275" />
    <vehicle id="left_right_82" type="typeWE" route="left_right" depart="276" />
    <vehicle id="down_left_83" type="typeWE" route="down_left" depart="278" />
    <vehicle id="right_down_84" type="typeWE" route="right_down" depart="280" />
    <vehicle id="right_left_85" type="typeWE" route="right_left" depart="283" />
    <vehicle id="up_down_86" type="typeWE" route="up_down" depart="285" />
    <vehicle id="right_left_87" type="typeWE" route="right_left" depart="288" />
    <vehicle id="left_right_88" type="typeWE" route="left_right" depart="289" />
    <vehicle id="up_down_89" type="typeWE" route="up_down" depart="295" />
    <vehicle id="down_up_90" type="typeWE" route="down_up" depart="308" />
    <vehicle id="down_up_91" type="typeWE" route="down_up" depart="319" />
    <vehicle id="right_left_92" type="typeWE" route="right_left" depart="325" />
    <vehicle id="down_up_93" type="typeWE" route="down_up" depart="325" />
    <vehicle id="left_right_94" type="typeWE" route="left_right" depart="335" />
    <vehicle id="down_left_95" type="typeWE" route="down_left" depart="337" />
    <vehicle id="right_left_96" type="typeWE" route="right_left" depart="339" />
    <vehicle id="left_right_97" type="typeWE" route="left_right" depart="347" />
    <vehicle id="up_right_98" type="typeWE" route="up_right" depart="348" />
    <vehicle id="right_left_99" type="typeWE" route="right_left" depart="351" />
    <vehicle id="right_left_100" type="typeWE" route="right_left" depart="353" />
    <vehicle id="right_left_101" type="typeWE" route="right_left" depart="360" />
    <vehicle id="up_down_102" type="typeWE" route="up_down" depart="361" />
    <vehicle id="left_right_103" type="typeWE" route="left_right" depart="366" />
    <vehicle id="up_down_104" type="typeWE" route="up_down" depart="369" />
    <vehicle id="down_up_105" type="typeWE" route="down_up" depart="369" />
    <vehicle id="left_right_106" type="typeWE" route="left_right" depart="371" />
    <vehicle id="up_down_107" type="typeWE" route="up_down" depart="373" />
    <vehicle id="right_left_108" type="typeWE" route="right_left" depart="375" />
    <vehicle id="up_down_109" type="typeWE" route="up_down" depart="379" />
    <vehicle id="down_up_110" type="typeWE" route="down_up" depart="381" />
    <vehicle id="down_right_111" type="typeWE" route="down_right" depart="385" />
    <vehicle id="left_right_112" type="typeWE" route="left_right" depart="390" />
    <vehicle id="right_down_113" type="typeWE" route="right_down" depart="391" />
    <vehicle id="right_up_114" type="typeWE" route="right_up" depart="402" />
    <vehicle id="up_down_115" type="typeWE" route="up_down" depart="404" />
    <vehicle id="down_up_116" type="typeWE" route="down_up" depart="407" />
    <vehicle id="up_down_117" type="typeWE" route="up_down" depart="408" />
    <vehicle id="down_up_118" type="typeWE" route="down_up" depart="409" />
    <vehicle id="up_down_119" type="typeWE" route="up_down" depart="413" />
    <vehicle id="down_up_120" type="typeWE" route="down_up" depart="414" />
    <vehicle id="down_up_121" type="typeWE" route="down_up" depart="415" />
    <vehicle id="down_up_122" type="typeWE" route="down_up" depart="419" />
    <vehicle id="right_up_123" type="typeWE" route="right_up" depart="420" />
    <vehicle id="down_up_124" type="typeWE" route="down_up" depart="424" />
    <vehicle id="down_left_125" type="typeWE" route="down_left" depart="428" />
    <vehicle id="right_down_126" type="typeWE" route="right_down" depart="433" />
    <vehicle id="left_up_127" type="typeWE" route="left_up" depart="434" />
    <vehicle id="down_up_128" type="typeWE" route="down_up" depart="439" />
    <vehicle id="up_right_129" type="typeWE" route="up_right" depart="440" />
    <vehicle id="down_right_130" type="typeWE" route="down_right" depart="441" />
    <vehicle id="right_left_131" type="typeWE" route="right_left" depart="444" />
    <vehicle id="down_right_132" type="typeWE" route="down_right" depart="448" />
    <vehicle id="right_left_133" type="typeWE" route="right_left" depart="450" />
    <vehicle id="left_right_134" type="typeWE" route="left_right" depart="451" />
    <vehicle id="down_up_135" type="typeWE" route="down_up" depart="452" />
    <vehicle id="up_down_136" type="typeWE" route="up_down" depart="460" />
    <vehicle id="up_down_137" type="typeWE" route="up_down" depart="462" />
    <vehicle id="left_right_138" type="typeWE" route="left_right" depart="463" />
    <vehicle id="left_right_139" type="typeWE" route="left_right" depart="465" />
    <vehicle id="up_down_140" type="typeWE" route="up_down" depart="476" />
    <vehicle id="down_up_141" type="typeWE" route="down_up" depart="479" />
    <vehicle id="down_up_142" type="typeWE" route="down_up" depart="485" />
    <vehicle id="down_up_143" type="typeWE" route="down_up" depart="494" />
    <vehicle id="right_left_144" type="typeWE" route="right_left" depart="508" />
    <vehicle id="right_left_145" type="typeWE" route="right_left" depart="509" />
    <vehicle id="right_left_146" type="typeWE" route="right_left" depart="515" />
    <vehicle id="up_down_147" type="typeWE" route="up_down" depart="529" />
    <vehicle id="up_down_148" type="typeWE" route="up_down" depart="545" />
    <vehicle id="right_left_149" type="typeWE" route="right_left" depart="549" />
    <vehicle id="up_down_150" type="typeWE" route="up_down" depart="550" />
    <vehicle id="left_up_151" type="typeWE" route="left_up" depart="553" />
    <vehicle id="down_left_152" type="typeWE" route="down_left" depart="553" />
    <vehicle id="down_up_153" type="typeWE" route="down_up" depart="559" />
    <vehicle id="right_left_154" type="typeWE" route="right_left" depart="561" />
    <vehicle id="left_down_155" type="typeWE" route="left_down" depart="574" />
    <vehicle id="down_right_156" type="typeWE" route="down_right" depart="576" />
    <vehicle id="down_up_157" type="typeWE" route="down_up" depart="578" />
    <vehicle id="down_up_158" type="typeWE" route="down_up" depart="583" />
    <vehicle id="left_right_159" type="typeWE" route="left_right" depart="588" />
    <vehicle id="down_left_160" type="typeWE" route="down_left" depart="588" />
    <vehicle id="down_up_161" type="typeWE" route="down_up" depart="598" />
    <vehicle id="down_up_162" type="typeWE" route="down_up" depart="610" />
    <vehicle id="right_left_163" type="typeWE" route="right_left" depart="611" />
    <vehicle id="down_up_164" type="typeWE" route="down_up" depart="616" />
    <vehicle id="left_right_165" type="typeWE" route="left_right" depart="620" />
    <vehicle id="right_left_166" type="typeWE" route="right_left" depart="623" />
    <vehicle id="up_down_167" type="typeWE" route="up_down" depart="624" />
    <vehicle id="right_left_168" type="typeWE" route="right_left" depart="628" />
    <vehicle id="down_up_169" type="typeWE" route="down_up" depart="629" />
    <vehicle id="right_left_170" type="typeWE" route="right_left" depart="630" />
    <vehicle id="down_up_171" type="typeWE" route="down_up" depart="630" />
    <vehicle id="right_left_172" type="typeWE" route="right_left" depart="633" />
    <vehicle id="down_left_173" type="typeWE" route="down_left" depart="640" />
    <vehicle id="up_down_174" type="typeWE" route="up_down" depart="646" />
    <vehicle id="up_down_175" type="typeWE" route="up_down" depart="647" />
    <vehicle id="down_left_176" type="typeWE" route="down_left" depart="650" />
    <vehicle id="down_up_177" type="typeWE" route="down_up" depart="654" />
    <vehicle id="left_right_178" type="typeWE" route="left_right" depart="655" />
    <vehicle id="up_left_179" type="typeWE" route="up_left" depart="656" />
    <vehicle id="right_left_180" type="typeWE" route="right_left" depart="657" />
    <vehicle id="up_down_181" type="typeWE" route="up_down" depart="664" />
    <vehicle id="up_down_182" type="typeWE" route="up_down" depart="666" />
    <vehicle id="down_up_183" type="typeWE" route="down_up" depart="666" />
    <vehicle id="right_left_184" type="typeWE" route="right_left" depart="669" />
    <vehicle id="left_right_185" type="typeWE" route="left_right" depart="684" />
    <vehicle id="up_left_186" type="typeWE" route="up_left" depart="684" />
    <vehicle id="up_down_187" type="typeWE" route="up_down" depart="687" />
    <vehicle id="right_left_188" type="typeWE" route="right_left" depart="688" />
    <vehicle id="right_up_189" type="typeWE" route="right_up" depart="689" />
    <vehicle id="up_down_190" type="typeWE" route="up_down" depart="695" />
    <vehicle id="up_down_191" type="typeWE" route="up_down" depart="696" />
    <vehicle id="down_up_192" type="typeWE" route="down_up" depart="700" />
    <vehicle id="up_down_193" type="typeWE" route="up_down" depart="703" />
    <vehicle id="left_right_194" type="typeWE" route="left_right" depart="705" />
    <vehicle id="left_right_195" type="typeWE" route="left_right" depart="715" />
    <vehicle id="down_up_196" type="typeWE" route="down_up" depart="721" />
    <vehicle id="left_right_197" type="typeWE" route="left_right" depart="726" />
    <vehicle id="left_right_198" type="typeWE" route="left_right" depart="732" />
    <vehicle id="up_down_199" type="typeWE" route="up_down" depart="735" />
    <vehicle id="up_down_200" type="typeWE" route="up_down" depart="738" />
    <vehicle id="down_right_201" type="typeWE" route="down_right" depart="741" />
    <vehicle id="down_up_202" type="typeWE" route="down_up" depart="745" />
    <vehicle id="left_up_203" type="typeWE" route="left_up" depart="753" />
    <vehicle id="up_down_204" type="typeWE" route="up_down" depart="759" />
    <vehicle id="down_left_205" type="typeWE" route="down_left" depart="759" />
    <vehicle id="right_left_206" type="typeWE" route="right_left" depart="763" />
    <vehicle id="up_down_207" type="typeWE" route="up_down" depart="771" />
    <vehicle id="down_up_208" type="typeWE" route="down_up" depart="772" />
    <vehicle id="up_down_209" type="typeWE" route="up_down" depart="774" />
    <vehicle id="left_right_210" type="typeWE" route="left_right" depart="776" />
    <vehicle id="down_right_211" type="typeWE" route="down_right" depart="784" />
    <vehicle id="left_right_212" type="typeWE" route="left_right" depart="787" />
    <vehicle id="up_down_213" type="typeWE" route="up_down" depart="789" />
    <vehicle id="right_left_214" type="typeWE" route="right_left" depart="790" />
    <vehicle id="left_down_215" type="typeWE" route="left_down" depart="792" />
    <vehicle id="left_right_216" type="typeWE" route="left_right" depart="811" />
    <vehicle id="right_left_217" type="typeWE" route="right_left" depart="811" />
    <vehicle id="left_up_218" type="typeWE" route="left_up" depart="816" />
    <vehicle id="up_down_219" type="typeWE" route="up_down" depart="820" />
    <vehicle id="up_right_220" type="typeWE" route="up_right" depart="827" />
    <vehicle id="up_down_221" type="typeWE" route="up_down" depart="829" />
    <vehicle id="right_left_222" type="typeWE" route="right_left" depart="831" />
    <vehicle id="up_down_223" type="typeWE" route="up_down" depart="838" />
    <vehicle id="down_left_224" type="typeWE" route="down_left" depart="847" />
    <vehicle id="down_up_225" type="typeWE" route="down_up" depart="866" />
    <vehicle id="up_down_226" type="typeWE" route="up_down" depart="867" />
    <vehicle id="right_down_227" type="typeWE" route="right_down" depart="868" />
    <vehicle id="up_down_228" type="typeWE" route="up_down" depart="871" />
    <vehicle id="down_up_229" type="typeWE" route="down_up" depart="871" />
    <vehicle id="down_up_230" type="typeWE" route="down_up" depart="875" />
    <vehicle id="down_left_231" type="typeWE" route="down_left" depart="882" />
    <vehicle id="left_right_232" type="typeWE" route="left_right" depart="885" />
    <vehicle id="right_up_233" type="typeWE" route="right_up" depart="890" />
    <vehicle id="down_up_234" type="typeWE" route="down_up" depart="892" />
    <vehicle id="up_right_235" type="typeWE" route="up_right" depart="893" />
    <vehicle id="right_down_236" type="typeWE" route="right_down" depart="894" />
    <vehicle id="down_up_237" type="typeWE" route="down_up" depart="894" />
    <vehicle id="down_up_238" type="typeWE" route="down_up" depart="899" />
    <vehicle id="up_down_239" type="typeWE" route="up_down" depart="902" />
    <vehicle id="up_down_240" type="typeWE" route="up_down" depart="904" />
    <vehicle id="right_left_241" type="typeWE" route="right_left" depart="905" />
    <vehicle id="down_up_242" type="typeWE" route="down_up" depart="907" />
    <vehicle id="down_left_243" type="typeWE" route="down_left" depart="910" />
    <vehicle id="down_up_244" type="typeWE" route="down_up" depart="912" />
    <vehicle id="up_down_245" type="typeWE" route="up_down" depart="913" />
    <vehicle id="down_left_246" type="typeWE" route="down_left" depart="913" />
    <vehicle id="up_down_247" type="typeWE" route="up_down" depart="919" />
    <vehicle id="right_left_248" type="typeWE" route="right_left" depart="923" />
    <vehicle id="right_left_249" type="typeWE" route="right_left" depart="929" />
    <vehicle id="up_down_250" type="typeWE" route="up_down" depart="936" />
    <vehicle id="right_left_251" type="typeWE" route="right_left" depart="939" />
    <vehicle id="right_left_252" type="typeWE" route="right_left" depart="942" />
    <vehicle id="left_up_253" type="typeWE" route="left_up" depart="947" />
    <vehicle id="up_down_254" type="typeWE" route="up_down" depart="948" />
    <vehicle id="right_down_255" type="typeWE" route="right_down" depart="952" />
    <vehicle id="right_left_256" type="typeWE" route="right_left" depart="958" />
    <vehicle id="left_right_257" type="typeWE" route="left_right" depart="959" />
    <vehicle id="down_up_258" type="typeWE" route="down_up" depart="961" />
    <vehicle id="down_up_259" type="typeWE" route="down_up" depart="962" />
    <vehicle id="down_up_260" type="typeWE" route="down_up" depart="969" />
    <vehicle id="right_left_261" type="typeWE" route="right_left" depart="970" />
    <vehicle id="right_left_262" type="typeWE" route="right_left" depart="975" />
    <vehicle id="right_up_263" type="typeWE" route="right_up" depart="977" />
    <vehicle id="left_right_264" type="typeWE" route="left_right" depart="982" />
    <vehicle id="down_up_265" type="typeWE" route="down_up" depart="982" />
    <vehicle id="up_left_266" type="typeWE" route="up_left" depart="989" />
    <vehicle id="left_right_267" type="typeWE" route="left_right" depart="990" />
    <vehicle id="up_down_268" type="typeWE" route="up_down" depart="998" />
    <vehicle id="right_left_269" type="typeWE" route="right_left" depart="1004" />
    <vehicle id="right_left_270" type="typeWE" route="right_left" depart="1007" />
    <vehicle id="right_left_271" type="typeWE" route="right_left" depart="1012" />
    <vehicle id="right_left_272" type="typeWE" route="right_left" depart="1013" />
    <vehicle id="down_up_273" type="typeWE" route="down_up" depart="1013" />
    <vehicle id="down_up_274" type="typeWE" route="down_up" depart="1014" />
    <vehicle id="down_up_275" type="typeWE" route="down_up" depart="1020" />
    <vehicle id="up_down_276" type="typeWE" route="up_down" depart="1027" />
    <vehicle id="down_up_277" type="typeWE" route="down_up" depart="1032" />
    <vehicle id="down_right_278" type="typeWE" route="down_right" depart="1041" />
    <vehicle id="down_up_279" type="typeWE" route="down_up" depart="1057" />
    <vehicle id="up_right_280" type="typeWE" route="up_right" depart="1068" />
    <vehicle id="up_down_281" type="typeWE" route="up_down" depart="1071" />
    <vehicle id="left_right_282" type="typeWE" route="left_right" depart="1080" />
    <vehicle id="left_right_283" type="typeWE" route="left_right" depart="1090" />
    <vehicle id="up_down_284" type="typeWE" route="up_down" depart="1094" />
    <vehicle id="left_up_285" type="typeWE" route="left_up" depart="1111" />
    <vehicle id="up_down_286" type="typeWE" route="up_down" depart="1117" />
    <vehicle id="down_up_287" type="typeWE" route="down_up" depart="1123" />
    <vehicle id="left_right_288" type="typeWE" route="left_right" depart="1125" />
    <vehicle id="down_up_289" type="typeWE" route="down_up" depart="1129" />
    <vehicle id="right_left_290" type="typeWE" route="right_left" depart="1130" />
    <vehicle id="down_up_291" type="typeWE" route="down_up" depart="1135" />
    <vehicle id="right_left_292" type="typeWE" route="right_left" depart="1136" />
    <vehicle id="right_down_293" type="typeWE" route="right_down" depart="1140" />
    <vehicle id="left_right_294" type="typeWE" route="left_right" depart="1141" />
    <vehicle id="right_left_295" type="typeWE" route="right_left" depart="1161" />
    <vehicle id="right_left_296" type="typeWE" route="right_left" depart="1162" />
    <vehicle id="down_up_297" type="typeWE" route="down_up" depart="1177" />
    <vehicle id="up_down_298" type="typeWE" route="up_down" depart="1182" />
    <vehicle id="up_down_299" type="typeWE" route="up_down" depart="1185" />
    <vehicle id="down_up_300" type="typeWE" route="down_up" depart="1186" />
    <vehicle id="down_up_301" type="typeWE" route="down_up" depart="1187" />
    <vehicle id="down_left_302" type="typeWE" route="down_left" depart="1190" />
    <vehicle id="right_left_303" type="typeWE" route="right_left" depart="1198" />
    <vehicle id="up_down_304" type="typeWE" route="up_down" depart="1207" />
    <vehicle id="down_up_305" type="typeWE" route="down_up" depart="1208" />
    <vehicle id="down_up_306" type="typeWE" route="down_up" depart="1211" />
    <vehicle id="down_up_307" type="typeWE" route="down_up" depart="1220" />
    <vehicle id="down_up_308" type="typeWE" route="down_up" depart="1221" />
    <vehicle id="left_right_309" type="typeWE" route="left_right" depart="1224" />
    <vehicle id="up_down_310" type="typeWE" route="up_down" depart="1226" />
    <vehicle id="up_left_311" type="typeWE" route="up_left" depart="1241" />
    <vehicle id="up_down_312" type="typeWE" route="up_down" depart="1251" />
    <vehicle id="left_right_313" type="typeWE" route="left_right" depart="1252" />
    <vehicle id="up_down_314" type="typeWE" route="up_down" depart="1253" />
    <vehicle id="left_right_315" type="typeWE" route="left_right" depart="1256" />
    <vehicle id="right_left_316" type="typeWE" route="right_left" depart="1260" />
    <vehicle id="down_up_317" type="typeWE" route="down_up" depart="1261" />
    <vehicle id="down_up_318" type="typeWE" route="down_up" depart="1265" />
    <vehicle id="right_left_319" type="typeWE" route="right_left" depart="1277" />
    <vehicle id="right_up_320" type="typeWE" route="right_up" depart="1287" />
    <vehicle id="right_down_321" type="typeWE" route="right_down" depart="1289" />
    <vehicle id="up_down_322" type="typeWE" route="up_down" depart="1291" />
    <vehicle id="down_up_323" type="typeWE" route="down_up" depart="1291" />
    <vehicle id="left_right_324" type="typeWE" route="left_right" depart="1302" />
    <vehicle id="down_up_325" type="typeWE" route="down_up" depart="1308" />
    <vehicle id="left_down_326" type="typeWE" route="left_down" depart="1317" />
    <vehicle id="up_down_327" type="typeWE" route="up_down" depart="1317" />
    <vehicle id="up_down_328" type="typeWE" route="up_down" depart="1320" />
    <vehicle id="up_down_329" type="typeWE" route="up_down" depart="1322" />
    <vehicle id="down_up_330" type="typeWE" route="down_up" depart="1325" />
    <vehicle id="right_left_331" type="typeWE" route="right_left" depart="1327" />
    <vehicle id="right_left_332" type="typeWE" route="right_left" depart="1334" />
    <vehicle id="right_left_333" type="typeWE" route="right_left" depart="1337" />
    <vehicle id="up_left_334" type="typeWE" route="up_left" depart="1340" />
    <vehicle id="down_up_335" type="typeWE" route="down_up" depart="1340" />
    <vehicle id="left_right_336" type="typeWE" route="left_right" depart="1346" />
    <vehicle id="up_down_337" type="typeWE" route="up_down" depart="1349" />
    <vehicle id="down_right_338" type="typeWE" route="down_right" depart="1350" />
    <vehicle id="down_up_339" type="typeWE" route="down_up" depart="1351" />
    <vehicle id="up_down_340" type="typeWE" route="up_down" depart="1352" />
    <vehicle id="up_down_341" type="typeWE" route="up_down" depart="1355" />
    <vehicle id="left_right_342" type="typeWE" route="left_right" depart="1370" />
    <vehicle id="left_right_343" type="typeWE" route="left_right" depart="1382" />
    <vehicle id="up_right_344" type="typeWE" route="up_right" depart="1382" />
    <vehicle id="left_down_345" type="typeWE" route="left_down" depart="1383" />
    <vehicle id="down_up_346" type="typeWE" route="down_up" depart="1383" />
    <vehicle id="down_up_347" type="typeWE" route="down_up" depart="1386" />
    <vehicle id="up_down_348" type="typeWE" route="up_down" depart="1399" />
    <vehicle id="down_up_349" type="typeWE" route="down_up" depart="1399" />
    <vehicle id="right_left_350" type="typeWE" route="right_left" depart="1404" />
    <vehicle id="up_down_351" type="typeWE" route="up_down" depart="1404" />
    <vehicle id="right_left_352" type="typeWE" route="right_left" depart="1406" />
    <vehicle id="up_right_353" type="typeWE" route="up_right" depart="1410" />
    <vehicle id="right_left_354" type="typeWE" route="right_left" depart="1415" />
    <vehicle id="down_up_355" type="typeWE" route="down_up" depart="1417" />
    <vehicle id="down_up_356" type="typeWE" route="down_up" depart="1418" />
    <vehicle id="right_left_357" type="typeWE" route="right_left" depart="1424" />
    <vehicle id="up_right_358" type="typeWE" route="up_right" depart="1430" />
    <vehicle id="down_up_359" type="typeWE" route="down_up" depart="1442" />
    <vehicle id="right_down_360" type="typeWE" route="right_down" depart="1457" />
    <vehicle id="down_up_361" type="typeWE" route="down_up" depart="1462" />
    <vehicle id="up_down_362" type="typeWE" route="up_down" depart="1467" />
    <vehicle id="down_up_363" type="typeWE" route="down_up" depart="1469" />
    <vehicle id="up_down_364" type="typeWE" route="up_down" depart="1471" />
    <vehicle id="right_left_365" type="typeWE" route="right_left" depart="1472" />
    <vehicle id="up_down_366" type="typeWE" route="up_down" depart="1472" />
    <vehicle id="down_up_367" type="typeWE" route="down_up" depart="1478" />
    <vehicle id="down_left_368" type="typeWE" route="down_left" depart="1482" />
    <vehicle id="left_right_369" type="typeWE" route="left_right" depart="1483" />
    <vehicle id="right_left_370" type="typeWE" route="right_left" depart="1485" />
    <vehicle id="left_right_371" type="typeWE" route="left_right" depart="1486" />