<routes>
        <vType id="typeWE" accel="2.5" decel="4.5" sigma="0.5" length="5" minGap="2.5" maxSpeed="40" guiShape="passenger"/>

        <route id="left_up" edges="E4 -E2 -E1 -E5"/>
        <route id="left_right" edges="E4 -E2 -E3 -E6"/>
        <route id="left_down" edges="E4 -E2 E0 -E7"/>

        <route id="right_up" edges="E6 E3 -E1 -E5"/>
        <route id="right_left" edges="E6 E3 E2 -E4"/>
        <route id="right_down" edges="E6 E3 E0 -E7"/>

        <route id="down_up" edges="E7 -E0 -E1 -E5"/>
        <route id="down_left" edges="E7 -E0 E2 -E4"/>
        <route id="down_right" edges="E7 -E0 -E3 -E6"/>

        <route id="up_down" edges="E5 E1 E0 -E7"/>
        <route id="up_left" edges="E5 E1 E2 -E4"/>
        <route id="up_right" edges="E5 E1 -E3 -E6"/>
    <vehicle id="down_up_0" type="typeWE" route="down_up" depart="0" />
    <vehicle id="down_up_1" type="typeWE" route="down_up" depart="1" />
    <vehicle id="down_left_2" type="typeWE" route="down_left" depart="4" />
    <vehicle id="up_down_3" type="typeWE" route="up_down" depart="7" />
    <vehicle id="left_right_4" type="typeWE" route="left_right" depart="13" />
    <vehicle id="right_left_5" type="typeWE" route="right_left" depart="18" />
    <vehicle id="left_right_6" type="typeWE" route="left_right" depart="25" />
    <vehicle id="up_down_7" type="typeWE" route="up_down" depart="29" />
    <vehicle id="up_down_8" type="typeWE" route="up_down" depart="30" />
    <vehicle id="right_down_9" type="typeWE" route="right_down" depart="31" />
    <vehicle id="up_left_10" type="typeWE" route="up_left" depart="35" />
    <vehicle id="up_down_11" type="typeWE" route="up_down" depart="36" />
    <vehicle id="down_up_12" type="typeWE" route="down_up" depart="41" />
    <vehicle id="up_left_13" type="typeWE" route="up_left" depart="53" />
    <vehicle id="down_up_14" type="typeWE" route="down_up" depart="59" />
    <vehicle id="right_left_15" type="typeWE" route="right_left" depart="60" />
    <vehicle id="up_down_16" type="typeWE" route="up_down" depart="69" />
    <vehicle id="down_up_17" type="typeWE" route="down_up" depart="69" />
    <vehicle id="right_left_18" type="typeWE" route="right_left" depart="75" />
    <vehicle id="down_up_19" type="typeWE" route="down_up" depart="75" />
    <vehicle id="up_left_20" type="typeWE" route="up_left" depart="76" />
    <vehicle id="down_up_21" type="typeWE" route="down_up" depart="77" />
    <vehicle id="down_up_22" type="typeWE" route="down_up" depart="80" />
    <vehicle id="down_left_23" type="typeWE" route="down_left" depart="82" />
    <vehicle id="up_down_24" type="typeWE" route="up_down" depart="85" />
    <vehicle id="up_down_25" type="typeWE" route="up_down" depart="87" />
    <vehicle id="down_up_26" type="typeWE" route="down_up" depart="87" />
    <vehicle id="down_up_27" type="typeWE" route="down_up" depart="92" />
    <vehicle id="up_down_28" type="typeWE" route="up_down" depart="98" />
    <vehicle id="down_up_29" type="typeWE" route="down_up" depart="99" />
    <vehicle id="up_down_30" type="typeWE" route="up_down" depart="100" />
    <vehicle id="right_down_31" type="typeWE" route="right_down" depart="104" />
    <vehicle id="right_left_32" type="typeWE" route="right_left" depart="108" />
    <vehicle id="up_down_33" type="typeWE" route="up_down" depart="110" />
    <vehicle id="down_up_34" type="typeWE" route="down_up" depart="111" />
    <vehicle id="up_down_35" type="typeWE" route="up_down" depart="115" />
    <vehicle id="down_up_36" type="typeWE" route="down_up" depart="116" />
    <vehicle id="right_left_37" type="typeWE" route="right_left" depart="120" />
    <vehicle id="right_left_38" type="typeWE" route="right_left" depart="125" />
    <vehicle id="right_left_39" type="typeWE" route="right_left" depart="127" />
    <vehicle id="down_up_40" type="typeWE" route="down_up" depart="130" />
    <vehicle id="left_right_41" type="typeWE" route="left_right" depart="135" />
    <vehicle id="right_up_42" type="typeWE" route="right_up" depart="136" />
    <vehicle id="left_right_43" type="typeWE" route="left_right" depart="149" />
    <vehicle id="right_left_44" type="typeWE" route="right_left" depart="150" />
    <vehicle id="right_left_45" type="typeWE" route="right_left" depart="154" />
    <vehicle id="down_up_46" type="typeWE" route="down_up" depart="156" />
    <vehicle id="left_right_47" type="typeWE" route="left_right" depart="158" />
    <vehicle id="down_up_48" type="typeWE" route="down_up" depart="160" />
    <vehicle id="up_down_49" type="typeWE" route="up_down" depart="162" />
    <vehicle id="right_left_50" type="typeWE" route="right_left" depart="169" />
    <vehicle id="left_right_51" type="typeWE" route="left_right" depart="172" />
    <vehicle id="right_left_52" type="typeWE" route="right_left" depart="173" />
    <vehicle id="down_up_53" type="typeWE" route="down_up" depart="175" />
    <vehicle id="right_left_54" type="typeWE" route="right_left" depart="177" />
    <vehicle id="left_right_55" type="typeWE" route="left_right" depart="178" />
    <vehicle id="up_down_56" type="typeWE" route="up_down" depart="181" />
    <vehicle id="up_down_57" type="typeWE" route="up_down" depart="182" />
    <vehicle id="up_down_58" type="typeWE" route="up_down" depart="188" />
    <vehicle id="right_left_59" type="typeWE" route="right_left" depart="199" />
    <vehicle id="left_right_60" type="typeWE" route="left_right" depart="205" />
    <vehicle id="down_up_61" type="typeWE" route="down_up" depart="206" />
    <vehicle id="left_down_62" type="typeWE" route="left_down" depart="212" />
    <vehicle id="down_up_63" type="typeWE" route="down_up" depart="213" />
    <vehicle id="down_right_64" type="typeWE" route="down_right" depart="218" />
    <vehicle id="down_up_65" type="typeWE" route="down_up" depart="223" />
    <vehicle id="right_down_66" type="typeWE" route="right_down" depart="224" />
    <vehicle id="right_left_67" type="typeWE" route="right_left" depart="227" />
    <vehicle id="down_up_68" type="typeWE" route="down_up" depart="230" />
    <vehicle id="down_up_69" type="typeWE" route="down_up" depart="239" />
    <vehicle id="down_left_70" type="typeWE" route="down_left" depart="246" />
    <vehicle id="up_down_71" type="typeWE" route="up_down" depart="248" />
    <vehicle id="down_up_72" type="typeWE" route="down_up" depart="250" />
    <vehicle id="down_up_73" type="typeWE" route="down_up" depart="255" />
    <vehicle id="left_right_74" type="typeWE" route="left_right" depart="258" />
    <vehicle id="down_up_75" type="typeWE" route="down_up" depart="258" />
    <vehicle id="left_right_76" type="typeWE" route="left_right" depart="259" />
    <vehicle id="down_left_77" type="typeWE" route="down_left" depart="261" />
    <vehicle id="up_right_78" type="typeWE" route="up_right" depart="262" />
    <vehicle id="up_down_79" type="typeWE" route="up_down" depart="264" />
    <vehicle id="right_left_80" type="typeWE" route="right_left" depart="268" />
    <vehicle id="left_right_81" type="typeWE" route="left_right" depart="275" />
    <vehicle id="left_right_82" type="typeWE" route="left_right" depart="276" />
    <vehicle id="down_left_83" type="typeWE" route="down_left" depart="278" />
    <vehicle id="right_down_84" type="typeWE" route="right_down" depart="280" />
    <vehicle id="right_left_85" type="typeWE" route="right_left" depart="283" />
    <vehicle id="up_down_86" type="typeWE" route="up_down" depart="285" />
    <vehicle id="right_left_87" type="typeWE" route="right_left" depart="288" />
    <vehicle id="left_right_88" type="typeWE" route="left_right" depart="289" />
    <vehicle id="up_down_89" type="typeWE" route="up_down" depart="295" />
    <vehicle id="down_up_90" type="typeWE" route="down_up" depart="308" />
    <vehicle id="down_up_91" type="typeWE" route="down_up" depart="319" />
    <vehicle id="left_right_92" type="typeWE" route="left_right" depart="326" />
    <vehicle id="right_left_93" type="typeWE" route="right_left" depart="335" />
    <vehicle id="down_up_94" type="typeWE" route="down_up" depart="339" />
    <vehicle id="up_down_95" type="typeWE" route="up_down" depart="347" />
    <vehicle id="left_up_96" type="typeWE" route="left_up" depart="349" />
    <vehicle id="down_up_97" type="typeWE" route="down_up" depart="351" />
    <vehicle id="down_up_98" type="typeWE" route="down_up" depart="353" />
    <vehicle id="down_up_99" type="typeWE" route="down_up" depart="360" />
    <vehicle id="up_down_100" type="typeWE" route="up_down" depart="361" />
    <vehicle id="down_up_101" type="typeWE" route="down_up" depart="361" />
    <vehicle id="right_left_102" type="typeWE" route="right_left" depart="366" />
    <vehicle id="down_up_103" type="typeWE" route="down_up" depart="369" />
    <vehicle id="left_right_104" type="typeWE" route="left_right" depart="370" />
    <vehicle id="right_left_105" type="typeWE" route="right_left" depart="371" />
    <vehicle id="down_up_106" type="typeWE" route="down_up" depart="373" />
    <vehicle id="up_down_107" type="typeWE" route="up_down" depart="375" />
    <vehicle id="up_down_108" type="typeWE" route="up_down" depart="376" />
    <vehicle id="up_down_109" type="typeWE" route="up_down" depart="379" />
    <vehicle id="down_up_110" type="typeWE" route="down_up" depart="381" />
    <vehicle id="down_right_111" type="typeWE" route="down_right" depart="385" />
    <vehicle id="left_right_112" type="typeWE" route="left_right" depart="390" />
    <vehicle id="right_down_113" type="typeWE" route="right_down" depart="391" />
    <vehicle id="right_up_114" type="typeWE" route="right_up" depart="402" />
    <vehicle id="up_down_115" type="typeWE" route="up_down" depart="404" />
    <vehicle id="down_up_116" type="typeWE" route="down_up" depart="407" />
    <vehicle id="up_down_117" type="typeWE" route="up_down" depart="408" />
    <vehicle id="down_up_118" type="typeWE" route="down_up" depart="409" />
    <vehicle id="up_down_119" type="typeWE" route="up_down" depart="413" />
    <vehicle id="down_up_120" type="typeWE" route="down_up" depart="414" />
    <vehicle id="down_up_121" type="typeWE" route="down_up" depart="415" />
    <vehicle id="down_up_122" type="typeWE" route="down_up" depart="419" />
    <vehicle id="right_up_123" type="typeWE" route="right_up" depart="420" />
    <vehicle id="down_up_124" type="typeWE" route="down_up" depart="424" />
    <vehicle id="down_left_125" type="typeWE" route="down_left" depart="428" />
    <vehicle id="right_down_126" type="typeWE" route="right_down" depart="433" />
    <vehicle id="left_up_127" type="typeWE" route="left_up" depart="434" />
    <vehicle id="down_up_128" type="typeWE" route="down_up" depart="439" />
    <vehicle id="up_right_129" type="typeWE" route="up_right" depart="440" />
    <vehicle id="down_right_130" type="typeWE" route="down_right" depart="441" />
    <vehicle id="right_left_131" type="typeWE" route="right_left" depart="444" />
    <vehicle id="down_right_132" type="typeWE" route="down_right" depart="448" />
    <vehicle id="right_left_133" type="typeWE" route="right_left" depart="450" />
    <vehicle id="left_right_134" type="typeWE" route="left_right" depart="451" />
    <vehicle id="down_up_135" type="typeWE" route="down_up" depart="452" />
    <vehicle id="up_down_136" type="typeWE" route="up_down" depart="460" />
    <vehicle id="up_down_137" type="typeWE" route="up_down" depart="462" />
    <vehicle id="left_right_138" type="typeWE" route="left_right" depart="463" />
    <vehicle id="left_right_139" type="typeWE" route="left_right" depart="465" />
    <vehicle id="up_down_140" type="typeWE" route="up_down" depart="476" />
    <vehicle id="down_up_141" type="typeWE" route="down_up" depart="479" />
    <vehicle id="down_up_142" type="typeWE" route="down_up" depart="485" />
    <vehicle id="down_up_143" type="typeWE" route="down_up" depart="494" />
    <vehicle id="right_left_144" type="typeWE" route="right_left" depart="508" />
    <vehicle id="right_left_145" type="typeWE" route="right_left" depart="509" />
    <vehicle id="right_left_146" type="typeWE" route="right_left" depart="515" />
    <vehicle id="up_down_147" type="typeWE" route="up_down" depart="529" />
    <vehicle id="up_down_148" type="typeWE" route="up_down" depart="545" />
    <vehicle id="right_left_149" type="typeWE" route="right_left" depart="549" />
    <vehicle id="up_down_150" type="typeWE" route="up_down" depart="550" />
    <vehicle id="left_up_151" type="typeWE" route="left_up" depart="553" />
    <vehicle id="down_left_152" type="typeWE" route="down_left" depart="553" />
    <vehicle id="down_up_153" type="typeWE" route="down_up" depart="559" />
    <vehicle id="up_down_154" type="typeWE" route="up_down" depart="563" />
    <vehicle id="left_down_155" type="typeWE" route="left_down" depart="574" />
    <vehicle id="down_right_156" type="typeWE" route="down_right" depart="576" />
    <vehicle id="down_up_157" type="typeWE" route="down_up" depart="578" />
    <vehicle id="down_up_158" type="typeWE" route="down_up" depart="583" />
    <vehicle id="left_right_159" type="typeWE" route="left_right" depart="588" />
    <vehicle id="down_left_160" type="typeWE" route="down_left" depart="588" />
    <vehicle id="down_up_161" type="typeWE" route="down_up" depart="598" />
    <vehicle id="down_up_162" type="typeWE" route="down_up" depart="610" />
    <vehicle id="right_left_163" type="typeWE" route="right_left" depart="611" />
    <vehicle id="down_up_164" type="typeWE" route="down_up" depart="616" />
    <vehicle id="left_right_165" type="typeWE" route="left_right" depart="620" />
    <vehicle id="right_left_166" type="typeWE" route="right_left" depart="623" />
    <vehicle id="up_down_167" type="typeWE" route="up_down" depart="624" />
    <vehicle id="right_left_168" type="typeWE" route="right_left" depart="628" />
    <vehicle id="down_up_169" type="typeWE" route="down_up" depart="629" />
    <vehicle id="right_left_170" type="typeWE" route="right_left" depart="630" />
    <vehicle id="down_up_171" type="typeWE" route="down_up" depart="630" />
    <vehicle id="right_left_172" type="typeWE" route="right_left" depart="633" />
    <vehicle id="down_left_173" type="typeWE" route="down_left" depart="640" />
    <vehicle id="up_down_174" type="typeWE" route="up_down" depart="646" />
    <vehicle id="up_down_175" type="typeWE" route="up_down" depart="647" />
    <vehicle id="up_down_176" type="typeWE" route="up_down" depart="655" />
    <vehicle id="left_down_177" type="typeWE" route="left_down" depart="657" />
    <vehicle id="down_up_178" type="typeWE" route="down_up" depart="657" />
    <vehicle id="left_right_179" type="typeWE" route="left_right" depart="665" />
    <vehicle id="left_right_180" type="typeWE" route="left_right" depart="667" />
    <vehicle id="left_right_181" type="typeWE" route="left_right" depart="670" />
    <vehicle id="down_up_182" type="typeWE" route="down_up" depart="684" />
    <vehicle id="right_up_183" type="typeWE" route="right_up" depart="685" />
    <vehicle id="right_left_184" type="typeWE" route="right_left" depart="688" />
    <vehicle id="left_right_185" type="typeWE" route="left_right" depart="689" />
    <vehicle id="left_down_186" type="typeWE" route="left_down" depart="690" />
    <vehicle id="right_left_187" type="typeWE" route="right_left" depart="696" />
    <vehicle id="right_left_188" type="typeWE" route="right_left" depart="697" />
    <vehicle id="up_down_189" type="typeWE" route="up_down" depart="701" />
    <vehicle id="left_right_190" type="typeWE" route="left_right" depart="706" />
    <vehicle id="left_right_191" type="typeWE" route="left_right" depart="716" />
    <vehicle id="down_up_192" type="typeWE" route="down_up" depart="722" />
    <vehicle id="right_left_193" type="typeWE" route="right_left" depart="733" />
    <vehicle id="down_up_194" type="typeWE" route="down_up" depart="736" />
    <vehicle id="down_up_195" type="typeWE" route="down_up" depart="739" />
    <vehicle id="up_down_196" type="typeWE" route="up_down" depart="740" />
    <vehicle id="down_right_197" type="typeWE" route="down_right" depart="742" />
    <vehicle id="down_up_198" type="typeWE" route="down_up" depart="746" />
    <vehicle id="left_up_199" type="typeWE" route="left_up" depart="754" />
    <vehicle id="up_down_200" type="typeWE" route="up_down" depart="760" />
    <vehicle id="down_left_201" type="typeWE" route="down_left" depart="760" />
    <vehicle id="right_left_202" type="typeWE" route="right_left" depart="764" />
    <vehicle id="up_down_203" type="typeWE" route="up_down" depart="772" />
    <vehicle id="down_up_204" type="typeWE" route="down_up" depart="773" />
    <vehicle id="up_down_205" type="typeWE" route="up_down" depart="775" />
    <vehicle id="left_right_206" type="typeWE" route="left_right" depart="777" />
    <vehicle id="down_right_207" type="typeWE" route="down_right" depart="785" />
    <vehicle id="left_right_208" type="typeWE" route="left_right" depart="788" />
    <vehicle id="up_down_209" type="typeWE" route="up_down" depart="790" />
    <vehicle id="right_left_210" type="typeWE" route="right_left" depart="791" />
    <vehicle id="left_down_211" type="typeWE" route="left_down" depart="793" />
    <vehicle id="left_right_212" type="typeWE" route="left_right" depart="812" />
    <vehicle id="right_left_213" type="typeWE" route="right_left" depart="812" />
    <vehicle id="left_up_214" type="typeWE" route="left_up" depart="817" />
    <vehicle id="up_down_215" type="typeWE" route="up_down" depart="821" />
    <vehicle id="up_right_216" type="typeWE" route="up_right" depart="828" />
    <vehicle id="up_down_217" type="typeWE" route="up_down" depart="830" />
    <vehicle id="right_left_218" type="typeWE" route="right_left" depart="832" />
    <vehicle id="up_down_219" type="typeWE" route="up_down" depart="839" />
    <vehicle id="down_left_220" type="typeWE" route="down_left" depart="848" />
    <vehicle id="down_up_221" type="typeWE" route="down_up" depart="867" />
    <vehicle id="up_down_222" type="typeWE" route="up_down" depart="868" />
    <vehicle id="right_down_223" type="typeWE" route="right_down" depart="869" />
    <vehicle id="up_down_224" type="typeWE" route="up_down" depart="872" />
    <vehicle id="down_up_225" type="typeWE" route="down_up" depart="872" />
    <vehicle id="left_up_226" type="typeWE" route="left_up" depart="884" />
    <vehicle id="down_right_227" type="typeWE" route="down_right" depart="891" />
    <vehicle id="right_left_228" type="typeWE" route="right_left" depart="894" />
    <vehicle id="left_up_229" type="typeWE" route="left_up" depart="895" />
    <vehicle id="down_left_230" type="typeWE" route="down_left" depart="895" />
    <vehicle id="up_down_231" type="typeWE" route="up_down" depart="901" />
    <vehicle id="up_down_232" type="typeWE" route="up_down" depart="906" />
    <vehicle id="right_left_233" type="typeWE" route="right_left" depart="907" />
    <vehicle id="down_up_234" type="typeWE" route="down_up" depart="909" />
    <vehicle id="down_left_235" type="typeWE" route="down_left" depart="912" />
    <vehicle id="up_down_236" type="typeWE" route="up_down" depart="914" />
    <vehicle id="up_down_237" type="typeWE" route="up_down" depart="915" />
    <vehicle id="down_left_238" type="typeWE" route="down_left" depart="915" />
    <vehicle id="up_down_239" type="typeWE" route="up_down" depart="921" />
    <vehicle id="right_left_240" type="typeWE" route="right_left" depart="925" />
    <vehicle id="right_left_241" type="typeWE" route="right_left" depart="931" />
    <vehicle id="up_down_242" type="typeWE" route="up_down" depart="938" />
    <vehicle id="right_left_243" type="typeWE" route="right_left" depart="941" />
    <vehicle id="down_up_244" type="typeWE" route="down_up" depart="943" />
    <vehicle id="left_right_245" type="typeWE" route="left_right" depart="944" />
    <vehicle id="down_left_246" type="typeWE" route="down_left" depart="948" />
    <vehicle id="right_left_247" type="typeWE" route="right_left" depart="950" />
    <vehicle id="down_up_248" type="typeWE" route="down_up" depart="953" />
    <vehicle id="left_right_249" type="typeWE" route="left_right" depart="960" />
    <vehicle id="down_up_250" type="typeWE" route="down_up" depart="960" />
    <vehicle id="up_down_251" type="typeWE" route="up_down" depart="963" />
    <vehicle id="up_down_252" type="typeWE" route="up_down" depart="964" />
    <vehicle id="up_down_253" type="typeWE" route="up_down" depart="971" />
    <vehicle id="left_right_254" type="typeWE" route="left_right" depart="972" />
    <vehicle id="left_right_255" type="typeWE" route="left_right" depart="977" />
    <vehicle id="left_down_256" type="typeWE" route="left_down" depart="979" />
    <vehicle id="down_up_257" type="typeWE" route="down_up" depart="983" />
    <vehicle id="up_down_258" type="typeWE" route="up_down" depart="984" />
    <vehicle id="right_up_259" type="typeWE" route="right_up" depart="991" />
    <vehicle id="down_up_260" type="typeWE" route="down_up" depart="991" />
    <vehicle id="down_up_261" type="typeWE" route="down_up" depart="998" />
    <vehicle id="left_right_262" type="typeWE" route="left_right" depart="1000" />
    <vehicle id="down_up_263" type="typeWE" route="down_up" depart="1005" />
    <vehicle id="down_up_264" type="typeWE" route="down_up" depart="1008" />
    <vehicle id="down_up_265" type="typeWE" route="down_up" depart="1013" />
    <vehicle id="up_down_266" type="typeWE" route="up_down" depart="1014" />
    <vehicle id="right_left_267" type="typeWE" route="right_left" depart="1015" />
    <vehicle id="right_left_268" type="typeWE" route="right_left" depart="1016" />
    <vehicle id="down_up_269" type="typeWE" route="down_up" depart="1018" />
    <vehicle id="left_right_270" type="typeWE" route="left_right" depart="1029" />
    <vehicle id="left_right_271" type="typeWE" route="left_right" depart="1035" />
    <vehicle id="up_down_272" type="typeWE" route="up_down" depart="1038" />
    <vehicle id="left_down_273" type="typeWE" route="left_down" depart="1043" />
    <vehicle id="up_down_274" type="typeWE" route="up_down" depart="1044" />
    <vehicle id="up_down_275" type="typeWE" route="up_down" depart="1047" />
    <vehicle id="up_down_276" type="typeWE" route="up_down" depart="1058" />
    <vehicle id="up_down_277" type="typeWE" route="up_down" depart="1072" />
    <vehicle id="left_right_278" type="typeWE" route="left_right" depart="1081" />
    <vehicle id="left_right_279" type="typeWE" route="left_right" depart="1091" />
    <vehicle id="up_down_280" type="typeWE" route="up_down" depart="1095" />
    <vehicle id="left_up_281" type="typeWE" route="left_up" depart="1112" />
    <vehicle id="up_down_282" type="typeWE" route="up_down" depart="1118" />
    <vehicle id="down_up_283" type="typeWE" route="down_up" depart="1124" />
    <vehicle id="left_right_284" type="typeWE" route="left_right" depart="1131" />
    <vehicle id="up_down_285" type="typeWE" route="up_down" depart="1131" />
    <vehicle id="down_up_286" type="typeWE" route="down_up" depart="1137" />
    <vehicle id="down_left_287" type="typeWE" route="down_left" depart="1141" />
    <vehicle id="up_down_288" type="typeWE" route="up_down" depart="1142" />
    <vehicle id="up_left_289" type="typeWE" route="up_left" depart="1160" />
    <vehicle id="up_down_290" type="typeWE" route="up_down" depart="1162" />
    <vehicle id="up_down_291" type="typeWE" route="up_down" depart="1163" />
    <vehicle id="left_right_292" type="typeWE" route="left_right" depart="1179" />
    <vehicle id="down_up_293" type="typeWE" route="down_up" depart="1183" />
    <vehicle id="down_up_294" type="typeWE" route="down_up" depart="1186" />
    <vehicle id="left_right_295" type="typeWE" route="left_right" depart="1188" />
    <vehicle id="left_right_296" type="typeWE" route="left_right" depart="1189" />
    <vehicle id="down_up_297" type="typeWE" route="down_up" depart="1199" />
    <vehicle id="down_up_298" type="typeWE" route="down_up" depart="1204" />
    <vehicle id="down_up_299" type="typeWE" route="down_up" depart="1208" />
    <vehicle id="right_left_300" type="typeWE" route="right_left" depart="1213" />
    <vehicle id="down_up_301" type="typeWE" route="down_up" depart="1216" />
    <vehicle id="left_right_302" type="typeWE" route="left_right" depart="1222" />
    <vehicle id="left_right_303" type="typeWE" route="left_right" depart="1223" />
    <vehicle id="right_left_304" type="typeWE" route="right_left" depart="1225" />
    <vehicle id="down_up_305" type="typeWE" route="down_up" depart="1227" />
    <vehicle id="down_right_306" type="typeWE" route="down_right" depart="1242" />
    <vehicle id="down_up_307" type="typeWE" route="down_up" depart="1252" />
    <vehicle id="right_left_308" type="typeWE" route="right_left" depart="1253" />
    <vehicle id="down_up_309" type="typeWE" route="down_up" depart="1254" />
    <vehicle id="right_left_310" type="typeWE" route="right_left" depart="1257" />
    <vehicle id="up_down_311" type="typeWE" route="up_down" depart="1261" />
    <vehicle id="left_right_312" type="typeWE" route="left_right" depart="1263" />
    <vehicle id="left_right_313" type="typeWE" route="left_right" depart="1267" />
    <vehicle id="up_down_314" type="typeWE" route="up_down" depart="1278" />
    <vehicle id="up_left_315" type="typeWE" route="up_left" depart="1288" />
    <vehicle id="up_right_316" type="typeWE" route="up_right" depart="1290" />
    <vehicle id="down_up_317" type="typeWE" route="down_up" depart="1292" />
    <vehicle id="up_down_318" type="typeWE" route="up_down" depart="1303" />
    <vehicle id="right_left_319" type="typeWE" route="right_left" depart="1310" />
    <vehicle id="up_left_320" type="typeWE" route="up_left" depart="1318" />
    <vehicle id="left_right_321" type="typeWE" route="left_right" depart="1319" />
    <vehicle id="down_up_322" type="typeWE" route="down_up" depart="1327" />
    <vehicle id="right_left_323" type="typeWE" route="right_left" depart="1329" />
    <vehicle id="right_left_324" type="typeWE" route="right_left" depart="1336" />
    <vehicle id="right_left_325" type="typeWE" route="right_left" depart="1339" />
    <vehicle id="up_left_326" type="typeWE" route="up_left" depart="1342" />
    <vehicle id="down_up_327" type="typeWE" route="down_up" depart="1342" />
    <vehicle id="left_right_328" type="typeWE" route="left_right" depart="1348" />
    <vehicle id="up_down_329" type="typeWE" route="up_down" depart="1351" />
    <vehicle id="down_right_330" type="typeWE" route="down_right" depart="1352" />
    <vehicle id="down_up_331" type="typeWE" route="down_up" depart="1353" />
    <vehicle id="up_down_332" type="typeWE" route="up_down" depart="1354" />
    <vehicle id="up_down_333" type="typeWE" route="up_down" depart="1357" />
    <vehicle id="up_right_334" type="typeWE" route="up_right" depart="1368" />
    <vehicle id="down_up_335" type="typeWE" route="down_up" depart="1371" />
    <vehicle id="down_up_336" type="typeWE" route="down_up" depart="1383" />
    <vehicle id="right_down_337" type="typeWE" route="right_down" depart="1384" />
    <vehicle id="down_right_338" type="typeWE" route="down_right" depart="1384" />
    <vehicle id="up_down_339" type="typeWE" route="up_down" depart="1385" />
    <vehicle id="up_down_340" type="typeWE" route="up_down" depart="1388" />
    <vehicle id="down_up_341" type="typeWE" route="down_up" depart="1401" />
    <vehicle id="right_left_342" type="typeWE" route="right_left" depart="1406" />
    <vehicle id="up_down_343" type="typeWE" route="up_down" depart="1406" />
    <vehicle id="right_left_344" type="typeWE" route="right_left" depart="1408" />
    <vehicle id="up_right_345" type="typeWE" route="up_right" depart="1412" />
    <vehicle id="right_left_346" type="typeWE" route="right_left" depart="1417" />
    <vehicle id="down_up_347" type="typeWE" route="down_up" depart="1419" />
    <vehicle id="down_up_348" type="typeWE" route="down_up" depart="1420" />
    <vehicle id="right_left_349" type="typeWE" route="right_left" depart="1426" />
    <vehicle id="up_right_350" type="typeWE" route="up_right" depart="1432" />
    <vehicle id="down_up_351" type="typeWE" route="down_up" depart="1444" />
    <vehicle id="right_down_352" type="typeWE" route="right_down" depart="1459" />
    <vehicle id="down_up_353" type="typeWE" route="down_up" depart="1469" />
    <vehicle id="left_right_354" type="typeWE" route="left_right" depart="1472" />
    <vehicle id="down_up_355" type="typeWE" route="down_up" depart="1474" />
    <vehicle id="left_right_356" type="typeWE" route="left_right" depart="1475" />
    <vehicle id="right_left_357" type="typeWE" route="right_left" depart="1481" />
    <vehicle id="right_down_358" type="typeWE" route="right_down" depart="1485" />
    <vehicle id="up_down_359" type="typeWE" route="up_down" depart="1485" />
    <vehicle id="down_up_360" type="typeWE" route="down_up" depart="1487" />
    <vehicle id="up_down_361" type="typeWE" route="up_down" depart="1488" />
    <vehicle id="up_down_362" type="typeWE" route="up_down" depart="1497" />
    <vehicle id="down_left_363" type="typeWE" route="down_left" depart="1498" />
    <vehicle id="right_down_364" type="typeWE" route="right_down" depart="1499" />
    <vehicle id="down_up_365" type="typeWE" route="down_up" depart="1505" />
    <vehicle id="left_right_366" type="typeWE" route="left_right" depart="1509" />
    <vehicle id="right_up_367" type="typeWE" route="right_up" depart="1518" />
    <vehicle id="left_right_368" type="typeWE" route="left_right" depart="1520" />
    <vehicle id="left_down_369" type="typeWE" route="left_down" depart="1523" />
    <vehicle id="right_up_370" type="typeWE" route="right_up" depart="1524" />
    <vehicle id="down_up_371" type="typeWE" route="down_up" depart="1524" />