<routes>
        <vType id="typeWE" accel="2.5" decel="4.5" sigma="0.5" length="5" minGap="2.5" maxSpeed="40" guiShape="passenger"/>

        <route id="left_up" edges="E4 -E2 -E1 -E5"/>
        <route id="left_right" edges="E4 -E2 -E3 -E6"/>
        <route id="left_down" edges="E4 -E2 E0 -E7"/>

        <route id="right_up" edges="E6 E3 -E1 -E5"/>
        <route id="right_left" edges="E6 E3 E2 -E4"/>
        <route id="right_down" edges="E6 E3 E0 -E7"/>

        <route id="down_up" edges="E7 -E0 -E1 -E5"/>
        <route id="down_left" edges="E7 -E0 E2 -E4"/>
        <route id="down_right" edges="E7 -E0 -E3 -E6"/>

        <route id="up_down" edges="E5 E1 E0 -E7"/>
        <route id="up_left" edges="E5 E1 E2 -E4"/>
        <route id="up_right" edges="E5 E1 -E3 -E6"/>
    <vehicle id="down_up_0" type="typeWE" route="down_up" depart="0" />
    <vehicle id="down_up_1" type="typeWE" route="down_up" depart="1" />
    <vehicle id="down_left_2" type="typeWE" route="down_left" depart="4" />
    <vehicle id="up_down_3" type="typeWE" route="up_down" depart="7" />
    <vehicle id="left_right_4" type="typeWE" route="left_right" depart="13" />
    <vehicle id="right_left_5" type="typeWE" route="right_left" depart="18" />
    <vehicle id="up_down_6" type="typeWE" route="up_down" depart="20" />
    <vehicle id="down_up_7" type="typeWE" route="down_up" depart="24" />
    <vehicle id="down_left_8" type="typeWE" route="down_left" depart="26" />
    <vehicle id="down_up_9" type="typeWE" route="down_up" depart="28" />
    <vehicle id="down_up_10" type="typeWE" route="down_up" depart="29" />
    <vehicle id="down_left_11" type="typeWE" route="down_left" depart="30" />
    <vehicle id="left_down_12" type="typeWE" route="left_down" depart="35" />
    <vehicle id="left_right_13" type="typeWE" route="left_right" depart="36" />
    <vehicle id="right_left_14" type="typeWE" route="right_left" depart="41" />
    <vehicle id="left_down_15" type="typeWE" route="left_down" depart="53" />
    <vehicle id="right_left_16" type="typeWE" route="right_left" depart="59" />
    <vehicle id="down_up_17" type="typeWE" route="down_up" depart="59" />
    <vehicle id="up_down_18" type="typeWE" route="up_down" depart="69" />
    <vehicle id="left_right_19" type="typeWE" route="left_right" depart="75" />
    <vehicle id="up_down_20" type="typeWE" route="up_down" depart="75" />
    <vehicle id="down_up_21" type="typeWE" route="down_up" depart="77" />
    <vehicle id="down_up_22" type="typeWE" route="down_up" depart="80" />
    <vehicle id="down_left_23" type="typeWE" route="down_left" depart="82" />
    <vehicle id="up_down_24" type="typeWE" route="up_down" depart="85" />
    <vehicle id="up_down_25" type="typeWE" route="up_down" depart="87" />
    <vehicle id="down_up_26" type="typeWE" route="down_up" depart="87" />
    <vehicle id="down_up_27" type="typeWE" route="down_up" depart="92" />
    <vehicle id="up_down_28" type="typeWE" route="up_down" depart="98" />
    <vehicle id="down_up_29" type="typeWE" route="down_up" depart="99" />
    <vehicle id="up_down_30" type="typeWE" route="up_down" depart="100" />
    <vehicle id="right_down_31" type="typeWE" route="right_down" depart="104" />
    <vehicle id="right_left_32" type="typeWE" route="right_left" depart="108" />
    <vehicle id="up_down_33" type="typeWE" route="up_down" depart="110" />
    <vehicle id="down_up_34" type="typeWE" route="down_up" depart="111" />
    <vehicle id="left_right_35" type="typeWE" route="left_right" depart="117" />
    <vehicle id="up_down_36" type="typeWE" route="up_down" depart="120" />
    <vehicle id="up_down_37" type="typeWE" route="up_down" depart="125" />
    <vehicle id="up_down_38" type="typeWE" route="up_down" depart="127" />
    <vehicle id="left_right_39" type="typeWE" route="left_right" depart="131" />
    <vehicle id="down_right_40" type="typeWE" route="down_right" depart="136" />
    <vehicle id="down_up_41" type="typeWE" route="down_up" depart="145" />
    <vehicle id="right_left_42" type="typeWE" route="right_left" depart="149" />
    <vehicle id="up_down_43" type="typeWE" route="up_down" depart="150" />
    <vehicle id="up_down_44" type="typeWE" route="up_down" depart="154" />
    <vehicle id="up_down_45" type="typeWE" route="up_down" depart="158" />
    <vehicle id="right_left_46" type="typeWE" route="right_left" depart="161" />
    <vehicle id="left_right_47" type="typeWE" route="left_right" depart="163" />
    <vehicle id="down_up_48" type="typeWE" route="down_up" depart="169" />
    <vehicle id="up_down_49" type="typeWE" route="up_down" depart="172" />
    <vehicle id="down_up_50" type="typeWE" route="down_up" depart="173" />
    <vehicle id="right_left_51" type="typeWE" route="right_left" depart="176" />
    <vehicle id="down_up_52" type="typeWE" route="down_up" depart="177" />
    <vehicle id="up_down_53" type="typeWE" route="up_down" depart="178" />
    <vehicle id="down_right_54" type="typeWE" route="down_right" depart="178" />
    <vehicle id="down_up_55" type="typeWE" route="down_up" depart="181" />
    <vehicle id="down_up_56" type="typeWE" route="down_up" depart="182" />
    <vehicle id="up_down_57" type="typeWE" route="up_down" depart="188" />
    <vehicle id="up_down_58" type="typeWE" route="up_down" depart="199" />
    <vehicle id="right_left_59" type="typeWE" route="right_left" depart="205" />
    <vehicle id="up_left_60" type="typeWE" route="up_left" depart="212" />
    <vehicle id="right_left_61" type="typeWE" route="right_left" depart="214" />
    <vehicle id="right_up_62" type="typeWE" route="right_up" depart="219" />
    <vehicle id="right_left_63" type="typeWE" route="right_left" depart="224" />
    <vehicle id="down_left_64" type="typeWE" route="down_left" depart="224" />
    <vehicle id="down_up_65" type="typeWE" route="down_up" depart="227" />
    <vehicle id="right_left_66" type="typeWE" route="right_left" depart="231" />
    <vehicle id="up_down_67" type="typeWE" route="up_down" depart="232" />
    <vehicle id="up_down_68" type="typeWE" route="up_down" depart="236" />
    <vehicle id="down_up_69" type="typeWE" route="down_up" depart="239" />
    <vehicle id="down_left_70" type="typeWE" route="down_left" depart="246" />
    <vehicle id="up_down_71" type="typeWE" route="up_down" depart="248" />
    <vehicle id="down_up_72" type="typeWE" route="down_up" depart="250" />
    <vehicle id="down_up_73" type="typeWE" route="down_up" depart="255" />
    <vehicle id="left_right_74" type="typeWE" route="left_right" depart="258" />
    <vehicle id="down_up_75" type="typeWE" route="down_up" depart="258" />
    <vehicle id="left_right_76" type="typeWE" route="left_right" depart="259" />
    <vehicle id="down_left_77" type="typeWE" route="down_left" depart="261" />
    <vehicle id="up_right_78" type="typeWE" route="up_right" depart="262" />
    <vehicle id="up_down_79" type="typeWE" route="up_down" depart="264" />
    <vehicle id="right_left_80" type="typeWE" route="right_left" depart="268" />
    <vehicle id="left_right_81" type="typeWE" route="left_right" depart="275" />
    <vehicle id="left_right_82" type="typeWE" route="left_right" depart="276" />
    <vehicle id="up_right_83" type="typeWE" route="up_right" depart="280" />
    <vehicle id="up_down_84" type="typeWE" route="up_down" depart="283" />
    <vehicle id="down_up_85" type="typeWE" route="down_up" depart="285" />
    <vehicle id="up_down_86" type="typeWE" route="up_down" depart="288" />
    <vehicle id="right_left_87" type="typeWE" route="right_left" depart="289" />
    <vehicle id="down_up_88" type="typeWE" route="down_up" depart="295" />
    <vehicle id="left_right_89" type="typeWE" route="left_right" depart="309" />
    <vehicle id="left_right_90" type="typeWE" route="left_right" depart="320" />
    <vehicle id="up_down_91" type="typeWE" route="up_down" depart="325" />
    <vehicle id="left_right_92" type="typeWE" route="left_right" depart="326" />
    <vehicle id="right_left_93" type="typeWE" route="right_left" depart="335" />
    <vehicle id="down_up_94" type="typeWE" route="down_up" depart="339" />
    <vehicle id="up_down_95" type="typeWE" route="up_down" depart="347" />
    <vehicle id="left_up_96" type="typeWE" route="left_up" depart="349" />
    <vehicle id="down_up_97" type="typeWE" route="down_up" depart="351" />
    <vehicle id="down_up_98" type="typeWE" route="down_up" depart="353" />
    <vehicle id="down_up_99" type="typeWE" route="down_up" depart="360" />
    <vehicle id="up_down_100" type="typeWE" route="up_down" depart="361" />
    <vehicle id="down_up_101" type="typeWE" route="down_up" depart="361" />
    <vehicle id="right_left_102" type="typeWE" route="right_left" depart="366" />
    <vehicle id="down_up_103" type="typeWE" route="down_up" depart="369" />
    <vehicle id="left_right_104" type="typeWE" route="left_right" depart="370" />
    <vehicle id="right_left_105" type="typeWE" route="right_left" depart="371" />
    <vehicle id="down_up_106" type="typeWE" route="down_up" depart="373" />
    <vehicle id="up_down_107" type="typeWE" route="up_down" depart="375" />
    <vehicle id="up_down_108" type="typeWE" route="up_down" depart="376" />
    <vehicle id="up_down_109" type="typeWE" route="up_down" depart="379" />
    <vehicle id="down_up_110" type="typeWE" route="down_up" depart="381" />
    <vehicle id="down_right_111" type="typeWE" route="down_right" depart="385" />
    <vehicle id="left_right_112" type="typeWE" route="left_right" depart="390" />
    <vehicle id="right_down_113" type="typeWE" route="right_down" depart="391" />
    <vehicle id="right_up_114" type="typeWE" route="right_up" depart="402" />
    <vehicle id="up_down_115" type="typeWE" route="up_down" depart="404" />
    <vehicle id="down_up_116" type="typeWE" route="down_up" depart="407" />
    <vehicle id="up_down_117" type="typeWE" route="up_down" depart="408" />
    <vehicle id="down_up_118" type="typeWE" route="down_up" depart="409" />
    <vehicle id="up_down_119" type="typeWE" route="up_down" depart="413" />
    <vehicle id="down_up_120" type="typeWE" route="down_up" depart="414" />
    <vehicle id="down_up_121" type="typeWE" route="down_up" depart="415" />
    <vehicle id="down_up_122" type="typeWE" route="down_up" depart="419" />
    <vehicle id="right_up_123" type="typeWE" route="right_up" depart="420" />
    <vehicle id="down_up_124" type="typeWE" route="down_up" depart="424" />
    <vehicle id="down_left_125" type="typeWE" route="down_left" depart="428" />
    <vehicle id="right_down_126" type="typeWE" route="right_down" depart="433" />
    <vehicle id="left_up_127" type="typeWE" route="left_up" depart="434" />
    <vehicle id="down_up_128" type="typeWE" route="down_up" depart="439" />
    <vehicle id="up_right_129" type="typeWE" route="up_right" depart="440" />
    <vehicle id="down_right_130" type="typeWE" route="down_right" depart="441" />
    <vehicle id="right_left_131" type="typeWE" route="right_left" depart="444" />
    <vehicle id="down_right_132" type="typeWE" route="down_right" depart="448" />
    <vehicle id="right_left_133" type="typeWE" route="right_left" depart="450" />
    <vehicle id="left_right_134" type="typeWE" route="left_right" depart="451" />
    <vehicle id="down_up_135" type="typeWE" route="down_up" depart="452" />
    <vehicle id="up_down_136" type="typeWE" route="up_down" depart="460" />
    <vehicle id="up_down_137" type="typeWE" route="up_down" depart="462" />
    <vehicle id="left_right_138" type="typeWE" route="left_right" depart="463" />
    <vehicle id="left_right_139" type="typeWE" route="left_right" depart="465" />
    <vehicle id="up_down_140" type="typeWE" route="up_down" depart="476" />
    <vehicle id="down_up_141" type="typeWE" route="down_up" depart="479" />
    <vehicle id="down_up_142" type="typeWE" route="down_up" depart="485" />
    <vehicle id="down_up_143" type="typeWE" route="down_up" depart="494" />
    <vehicle id="right_left_144" type="typeWE" route="right_left" depart="508" />
    <vehicle id="right_left_145" type="typeWE" route="right_left" depart="509" />
    <vehicle id="right_left_146" type="typeWE" route="right_left" depart="515" />
    <vehicle id="left_down_147" type="typeWE" route="left_down" depart="520" />
    <vehicle id="right_left_148" type="typeWE" route="right_left" depart="529" />
    <vehicle id="right_left_149" type="typeWE" route="right_left" depart="545" />
    <vehicle id="left_right_150" type="typeWE" route="left_right" depart="549" />
    <vehicle id="right_left_151" type="typeWE" route="right_left" depart="550" />
    <vehicle id="down_left_152" type="typeWE" route="down_left" depart="552" />
    <vehicle id="up_right_153" type="typeWE" route="up_right" depart="553" />
    <vehicle id="left_right_154" type="typeWE" route="left_right" depart="554" />
    <vehicle id="left_right_155" type="typeWE" route="left_right" depart="561" />
    <vehicle id="up_down_156" type="typeWE" route="up_down" depart="573" />
    <vehicle id="up_left_157" type="typeWE" route="up_left" depart="576" />
    <vehicle id="up_down_158" type="typeWE" route="up_down" depart="578" />
    <vehicle id="up_down_159" type="typeWE" route="up_down" depart="583" />
    <vehicle id="down_up_160" type="typeWE" route="down_up" depart="587" />
    <vehicle id="up_right_161" type="typeWE" route="up_right" depart="588" />
    <vehicle id="down_up_162" type="typeWE" route="down_up" depart="595" />
    <vehicle id="right_left_163" type="typeWE" route="right_left" depart="598" />
    <vehicle id="left_right_164" type="typeWE" route="left_right" depart="611" />
    <vehicle id="up_down_165" type="typeWE" route="up_down" depart="616" />
    <vehicle id="down_up_166" type="typeWE" route="down_up" depart="619" />
    <vehicle id="left_right_167" type="typeWE" route="left_right" depart="623" />
    <vehicle id="right_left_168" type="typeWE" route="right_left" depart="624" />
    <vehicle id="left_right_169" type="typeWE" route="left_right" depart="628" />
    <vehicle id="up_down_170" type="typeWE" route="up_down" depart="629" />
    <vehicle id="left_right_171" type="typeWE" route="left_right" depart="630" />
    <vehicle id="up_down_172" type="typeWE" route="up_down" depart="630" />
    <vehicle id="left_right_173" type="typeWE" route="left_right" depart="633" />
    <vehicle id="up_right_174" type="typeWE" route="up_right" depart="640" />
    <vehicle id="up_down_175" type="typeWE" route="up_down" depart="647" />
    <vehicle id="up_down_176" type="typeWE" route="up_down" depart="655" />
    <vehicle id="left_down_177" type="typeWE" route="left_down" depart="657" />
    <vehicle id="down_up_178" type="typeWE" route="down_up" depart="657" />
    <vehicle id="left_right_179" type="typeWE" route="left_right" depart="665" />
    <vehicle id="left_right_180" type="typeWE" route="left_right" depart="667" />
    <vehicle id="left_right_181" type="typeWE" route="left_right" depart="670" />
    <vehicle id="down_up_182" type="typeWE" route="down_up" depart="684" />
    <vehicle id="right_up_183" type="typeWE" route="right_up" depart="685" />
    <vehicle id="right_left_184" type="typeWE" route="right_left" depart="688" />
    <vehicle id="left_right_185" type="typeWE" route="left_right" depart="689" />
    <vehicle id="left_down_186" type="typeWE" route="left_down" depart="690" />
    <vehicle id="right_left_187" type="typeWE" route="right_left" depart="696" />
    <vehicle id="right_left_188" type="typeWE" route="right_left" depart="697" />
    <vehicle id="up_down_189" type="typeWE" route="up_down" depart="701" />
    <vehicle id="right_left_190" type="typeWE" route="right_left" depart="704" />
    <vehicle id="down_up_191" type="typeWE" route="down_up" depart="705" />
    <vehicle id="down_up_192" type="typeWE" route="down_up" depart="715" />
    <vehicle id="up_down_193" type="typeWE" route="up_down" depart="722" />
    <vehicle id="down_up_194" type="typeWE" route="down_up" depart="726" />
    <vehicle id="down_up_195" type="typeWE" route="down_up" depart="732" />
    <vehicle id="right_left_196" type="typeWE" route="right_left" depart="736" />
    <vehicle id="down_right_197" type="typeWE" route="down_right" depart="742" />
    <vehicle id="left_right_198" type="typeWE" route="left_right" depart="745" />
    <vehicle id="up_down_199" type="typeWE" route="up_down" depart="746" />
    <vehicle id="left_right_200" type="typeWE" route="left_right" depart="749" />
    <vehicle id="down_up_201" type="typeWE" route="down_up" depart="752" />
    <vehicle id="right_down_202" type="typeWE" route="right_down" depart="753" />
    <vehicle id="down_up_203" type="typeWE" route="down_up" depart="759" />
    <vehicle id="left_up_204" type="typeWE" route="left_up" depart="760" />
    <vehicle id="up_down_205" type="typeWE" route="up_down" depart="763" />
    <vehicle id="down_up_206" type="typeWE" route="down_up" depart="771" />
    <vehicle id="down_up_207" type="typeWE" route="down_up" depart="776" />
    <vehicle id="up_left_208" type="typeWE" route="up_left" depart="785" />
    <vehicle id="down_up_209" type="typeWE" route="down_up" depart="787" />
    <vehicle id="right_left_210" type="typeWE" route="right_left" depart="791" />
    <vehicle id="left_down_211" type="typeWE" route="left_down" depart="793" />
    <vehicle id="left_right_212" type="typeWE" route="left_right" depart="812" />
    <vehicle id="right_left_213" type="typeWE" route="right_left" depart="812" />
    <vehicle id="left_up_214" type="typeWE" route="left_up" depart="817" />
    <vehicle id="up_down_215" type="typeWE" route="up_down" depart="821" />
    <vehicle id="up_right_216" type="typeWE" route="up_right" depart="828" />
    <vehicle id="up_down_217" type="typeWE" route="up_down" depart="830" />
    <vehicle id="right_left_218" type="typeWE" route="right_left" depart="832" />
    <vehicle id="up_down_219" type="typeWE" route="up_down" depart="839" />
    <vehicle id="down_left_220" type="typeWE" route="down_left" depart="848" />
    <vehicle id="down_up_221" type="typeWE" route="down_up" depart="867" />
    <vehicle id="up_down_222" type="typeWE" route="up_down" depart="868" />
    <vehicle id="right_down_223" type="typeWE" route="right_down" depart="869" />
    <vehicle id="up_down_224" type="typeWE" route="up_down" depart="872" />
    <vehicle id="down_up_225" type="typeWE" route="down_up" depart="872" />
    <vehicle id="down_up_226" type="typeWE" route="down_up" depart="876" />
    <vehicle id="down_left_227" type="typeWE" route="down_left" depart="883" />
    <vehicle id="left_right_228" type="typeWE" route="left_right" depart="886" />
    <vehicle id="right_up_229" type="typeWE" route="right_up" depart="891" />
    <vehicle id="down_up_230" type="typeWE" route="down_up" depart="893" />
    <vehicle id="up_right_231" type="typeWE" route="up_right" depart="894" />
    <vehicle id="right_down_232" type="typeWE" route="right_down" depart="895" />
    <vehicle id="down_up_233" type="typeWE" route="down_up" depart="895" />
    <vehicle id="down_up_234" type="typeWE" route="down_up" depart="900" />
    <vehicle id="up_down_235" type="typeWE" route="up_down" depart="903" />
    <vehicle id="up_down_236" type="typeWE" route="up_down" depart="905" />
    <vehicle id="right_left_237" type="typeWE" route="right_left" depart="906" />
    <vehicle id="down_up_238" type="typeWE" route="down_up" depart="908" />
    <vehicle id="down_left_239" type="typeWE" route="down_left" depart="911" />
    <vehicle id="down_up_240" type="typeWE" route="down_up" depart="913" />
    <vehicle id="up_down_241" type="typeWE" route="up_down" depart="914" />
    <vehicle id="down_left_242" type="typeWE" route="down_left" depart="914" />
    <vehicle id="up_down_243" type="typeWE" route="up_down" depart="920" />
    <vehicle id="right_left_244" type="typeWE" route="right_left" depart="924" />
    <vehicle id="right_left_245" type="typeWE" route="right_left" depart="930" />
    <vehicle id="up_down_246" type="typeWE" route="up_down" depart="937" />
    <vehicle id="right_left_247" type="typeWE" route="right_left" depart="940" />
    <vehicle id="down_up_248" type="typeWE" route="down_up" depart="942" />
    <vehicle id="left_right_249" type="typeWE" route="left_right" depart="943" />
    <vehicle id="down_left_250" type="typeWE" route="down_left" depart="947" />
    <vehicle id="right_left_251" type="typeWE" route="right_left" depart="949" />
    <vehicle id="down_up_252" type="typeWE" route="down_up" depart="952" />
    <vehicle id="left_right_253" type="typeWE" route="left_right" depart="959" />
    <vehicle id="down_up_254" type="typeWE" route="down_up" depart="959" />
    <vehicle id="up_down_255" type="typeWE" route="up_down" depart="962" />
    <vehicle id="up_down_256" type="typeWE" route="up_down" depart="963" />
    <vehicle id="up_down_257" type="typeWE" route="up_down" depart="970" />
    <vehicle id="left_right_258" type="typeWE" route="left_right" depart="971" />
    <vehicle id="left_right_259" type="typeWE" route="left_right" depart="976" />
    <vehicle id="left_down_260" type="typeWE" route="left_down" depart="978" />
    <vehicle id="down_up_261" type="typeWE" route="down_up" depart="982" />
    <vehicle id="up_down_262" type="typeWE" route="up_down" depart="983" />
    <vehicle id="left_right_263" type="typeWE" route="left_right" depart="987" />
    <vehicle id="left_down_264" type="typeWE" route="left_down" depart="990" />
    <vehicle id="up_down_265" type="typeWE" route="up_down" depart="990" />
    <vehicle id="up_down_266" type="typeWE" route="up_down" depart="997" />
    <vehicle id="down_up_267" type="typeWE" route="down_up" depart="998" />
    <vehicle id="up_down_268" type="typeWE" route="up_down" depart="1004" />
    <vehicle id="up_down_269" type="typeWE" route="up_down" depart="1007" />
    <vehicle id="up_down_270" type="typeWE" route="up_down" depart="1012" />
    <vehicle id="up_down_271" type="typeWE" route="up_down" depart="1013" />
    <vehicle id="left_right_272" type="typeWE" route="left_right" depart="1014" />
    <vehicle id="left_right_273" type="typeWE" route="left_right" depart="1015" />
    <vehicle id="up_down_274" type="typeWE" route="up_down" depart="1017" />
    <vehicle id="down_up_275" type="typeWE" route="down_up" depart="1020" />
    <vehicle id="up_down_276" type="typeWE" route="up_down" depart="1027" />
    <vehicle id="down_up_277" type="typeWE" route="down_up" depart="1032" />
    <vehicle id="right_left_278" type="typeWE" route="right_left" depart="1033" />
    <vehicle id="down_up_279" type="typeWE" route="down_up" depart="1036" />
    <vehicle id="right_up_280" type="typeWE" route="right_up" depart="1041" />
    <vehicle id="down_up_281" type="typeWE" route="down_up" depart="1042" />
    <vehicle id="up_down_282" type="typeWE" route="up_down" depart="1044" />
    <vehicle id="up_down_283" type="typeWE" route="up_down" depart="1045" />
    <vehicle id="up_down_284" type="typeWE" route="up_down" depart="1056" />
    <vehicle id="up_down_285" type="typeWE" route="up_down" depart="1070" />
    <vehicle id="left_right_286" type="typeWE" route="left_right" depart="1079" />
    <vehicle id="left_right_287" type="typeWE" route="left_right" depart="1089" />
    <vehicle id="up_down_288" type="typeWE" route="up_down" depart="1093" />
    <vehicle id="left_up_289" type="typeWE" route="left_up" depart="1110" />
    <vehicle id="up_down_290" type="typeWE" route="up_down" depart="1116" />
    <vehicle id="down_up_291" type="typeWE" route="down_up" depart="1122" />
    <vehicle id="left_right_292" type="typeWE" route="left_right" depart="1129" />
    <vehicle id="up_down_293" type="typeWE" route="up_down" depart="1129" />
    <vehicle id="down_up_294" type="typeWE" route="down_up" depart="1135" />
    <vehicle id="down_left_295" type="typeWE" route="down_left" depart="1139" />
    <vehicle id="up_down_296" type="typeWE" route="up_down" depart="1140" />
    <vehicle id="up_left_297" type="typeWE" route="up_left" depart="1158" />
    <vehicle id="up_down_298" type="typeWE" route="up_down" depart="1160" />
    <vehicle id="up_down_299" type="typeWE" route="up_down" depart="1161" />
    <vehicle id="left_right_300" type="typeWE" route="left_right" depart="1177" />
    <vehicle id="down_up_301" type="typeWE" route="down_up" depart="1181" />
    <vehicle id="down_up_302" type="typeWE" route="down_up" depart="1184" />
    <vehicle id="left_right_303" type="typeWE" route="left_right" depart="1186" />
    <vehicle id="left_right_304" type="typeWE" route="left_right" depart="1187" />
    <vehicle id="down_up_305" type="typeWE" route="down_up" depart="1197" />
    <vehicle id="down_up_306" type="typeWE" route="down_up" depart="1202" />
    <vehicle id="down_up_307" type="typeWE" route="down_up" depart="1206" />
    <vehicle id="right_left_308" type="typeWE" route="right_left" depart="1211" />
    <vehicle id="down_up_309" type="typeWE" route="down_up" depart="1214" />
    <vehicle id="left_right_310" type="typeWE" route="left_right" depart="1220" />
    <vehicle id="left_right_311" type="typeWE" route="left_right" depart="1221" />
    <vehicle id="right_left_312" type="typeWE" route="right_left" depart="1223" />
    <vehicle id="down_up_313" type="typeWE" route="down_up" depart="1225" />
    <vehicle id="down_right_314" type="typeWE" route="down_right" depart="1240" />
    <vehicle id="down_up_315" type="typeWE" route="down_up" depart="1250" />
    <vehicle id="right_left_316" type="typeWE" route="right_left" depart="1251" />
    <vehicle id="down_up_317" type="typeWE" route="down_up" depart="1252" />
    <vehicle id="right_left_318" type="typeWE" route="right_left" depart="1255" />
    <vehicle id="up_down_319" type="typeWE" route="up_down" depart="1259" />
    <vehicle id="left_right_320" type="typeWE" route="left_right" depart="1261" />
    <vehicle id="left_right_321" type="typeWE" route="left_right" depart="1265" />
    <vehicle id="up_down_322" type="typeWE" route="up_down" depart="1276" />
    <vehicle id="up_left_323" type="typeWE" route="up_left" depart="1286" />
    <vehicle id="up_right_324" type="typeWE" route="up_right" depart="1288" />
    <vehicle id="down_up_325" type="typeWE" route="down_up" depart="1290" />
    <vehicle id="up_down_326" type="typeWE" route="up_down" depart="1301" />
    <vehicle id="right_left_327" type="typeWE" route="right_left" depart="1308" />
    <vehicle id="up_left_328" type="typeWE" route="up_left" depart="1316" />
    <vehicle id="left_right_329" type="typeWE" route="left_right" depart="1317" />
    <vehicle id="right_left_330" type="typeWE" route="right_left" depart="1322" />
    <vehicle id="up_down_331" type="typeWE" route="up_down" depart="1325" />
    <vehicle id="left_right_332" type="typeWE" route="left_right" depart="1327" />
    <vehicle id="left_right_333" type="typeWE" route="left_right" depart="1334" />
    <vehicle id="left_right_334" type="typeWE" route="left_right" depart="1337" />
    <vehicle id="down_up_335" type="typeWE" route="down_up" depart="1340" />
    <vehicle id="left_right_336" type="typeWE" route="left_right" depart="1346" />
    <vehicle id="up_down_337" type="typeWE" route="up_down" depart="1349" />
    <vehicle id="down_right_338" type="typeWE" route="down_right" depart="1350" />
    <vehicle id="down_up_339" type="typeWE" route="down_up" depart="1351" />
    <vehicle id="up_down_340" type="typeWE" route="up_down" depart="1352" />
    <vehicle id="up_down_341" type="typeWE" route="up_down" depart="1355" />
    <vehicle id="left_right_342" type="typeWE" route="left_right" depart="1370" />
    <vehicle id="left_right_343" type="typeWE" route="left_right" depart="1382" />
    <vehicle id="up_right_344" type="typeWE" route="up_right" depart="1382" />
    <vehicle id="left_down_345" type="typeWE" route="left_down" depart="1383" />
    <vehicle id="down_up_346" type="typeWE" route="down_up" depart="1383" />
    <vehicle id="down_up_347" type="typeWE" route="down_up" depart="1386" />
    <vehicle id="left_right_348" type="typeWE" route="left_right" depart="1400" />
    <vehicle id="up_down_349" type="typeWE" route="up_down" depart="1404" />
    <vehicle id="down_up_350" type="typeWE" route="down_up" depart="1404" />
    <vehicle id="up_down_351" type="typeWE" route="up_down" depart="1406" />
    <vehicle id="down_left_352" type="typeWE" route="down_left" depart="1410" />
    <vehicle id="up_down_353" type="typeWE" route="up_down" depart="1415" />
    <vehicle id="left_right_354" type="typeWE" route="left_right" depart="1418" />
    <vehicle id="up_down_355" type="typeWE" route="up_down" depart="1418" />
    <vehicle id="down_up_356" type="typeWE" route="down_up" depart="1418" />
    <vehicle id="right_left_357" type="typeWE" route="right_left" depart="1424" />
    <vehicle id="up_right_358" type="typeWE" route="up_right" depart="1430" />
    <vehicle id="down_up_359" type="typeWE" route="down_up" depart="1442" />
    <vehicle id="right_down_360" type="typeWE" route="right_down" depart="1457" />
    <vehicle id="down_up_361" type="typeWE" route="down_up" depart="1462" />
    <vehicle id="up_down_362" type="typeWE" route="up_down" depart="1467" />
    <vehicle id="down_up_363" type="typeWE" route="down_up" depart="1469" />
    <vehicle id="up_down_364" type="typeWE" route="up_down" depart="1471" />
    <vehicle id="right_left_365" type="typeWE" route="right_left" depart="1472" />
    <vehicle id="up_down_366" type="typeWE" route="up_down" depart="1472" />
    <vehicle id="down_up_367" type="typeWE" route="down_up" depart="1478" />
    <vehicle id="down_left_368" type="typeWE" route="down_left" depart="1482" />
    <vehicle id="left_right_369" type="typeWE" route="left_right" depart="1483" />
    <vehicle id="right_left_370" type="typeWE" route="right_left" depart="1485" />
    <vehicle id="left_right_371" type="typeWE" route="left_right" depart="1486" />
    <vehicle id="left_right_372" type="typeWE" route="left_right" depart="1495" />