<routes>
        <vType id="typeWE" accel="2.5" decel="4.5" sigma="0.5" length="5" minGap="2.5" maxSpeed="40" guiShape="passenger"/>

        <route id="left_up" edges="E4 -E2 -E1 -E5"/>
        <route id="left_right" edges="E4 -E2 -E3 -E6"/>
        <route id="left_down" edges="E4 -E2 E0 -E7"/>

        <route id="right_up" edges="E6 E3 -E1 -E5"/>
        <route id="right_left" edges="E6 E3 E2 -E4"/>
        <route id="right_down" edges="E6 E3 E0 -E7"/>

        <route id="down_up" edges="E7 -E0 -E1 -E5"/>
        <route id="down_left" edges="E7 -E0 E2 -E4"/>
        <route id="down_right" edges="E7 -E0 -E3 -E6"/>

        <route id="up_down" edges="E5 E1 E0 -E7"/>
        <route id="up_left" edges="E5 E1 E2 -E4"/>
        <route id="up_right" edges="E5 E1 -E3 -E6"/>
    <vehicle id="up_down_0" type="typeWE" route="up_down" depart="1" />
    <vehicle id="down_up_1" type="typeWE" route="down_up" depart="1" />
    <vehicle id="down_left_2" type="typeWE" route="down_left" depart="4" />
    <vehicle id="up_down_3" type="typeWE" route="up_down" depart="7" />
    <vehicle id="left_right_4" type="typeWE" route="left_right" depart="13" />
    <vehicle id="right_left_5" type="typeWE" route="right_left" depart="18" />
    <vehicle id="left_right_6" type="typeWE" route="left_right" depart="25" />
    <vehicle id="up_down_7" type="typeWE" route="up_down" depart="29" />
    <vehicle id="up_down_8" type="typeWE" route="up_down" depart="30" />
    <vehicle id="right_down_9" type="typeWE" route="right_down" depart="31" />
    <vehicle id="up_left_10" type="typeWE" route="up_left" depart="35" />
    <vehicle id="up_down_11" type="typeWE" route="up_down" depart="36" />
    <vehicle id="down_up_12" type="typeWE" route="down_up" depart="41" />
    <vehicle id="up_left_13" type="typeWE" route="up_left" depart="53" />
    <vehicle id="down_up_14" type="typeWE" route="down_up" depart="59" />
    <vehicle id="right_left_15" type="typeWE" route="right_left" depart="60" />
    <vehicle id="down_up_16" type="typeWE" route="down_up" depart="75" />
    <vehicle id="right_left_17" type="typeWE" route="right_left" depart="76" />
    <vehicle id="up_down_18" type="typeWE" route="up_down" depart="78" />
    <vehicle id="up_down_19" type="typeWE" route="up_down" depart="81" />
    <vehicle id="up_down_20" type="typeWE" route="up_down" depart="86" />
    <vehicle id="up_down_21" type="typeWE" route="up_down" depart="88" />
    <vehicle id="down_up_22" type="typeWE" route="down_up" depart="88" />
    <vehicle id="down_up_23" type="typeWE" route="down_up" depart="93" />
    <vehicle id="up_down_24" type="typeWE" route="up_down" depart="99" />
    <vehicle id="down_up_25" type="typeWE" route="down_up" depart="100" />
    <vehicle id="up_down_26" type="typeWE" route="up_down" depart="101" />
    <vehicle id="right_down_27" type="typeWE" route="right_down" depart="105" />
    <vehicle id="right_left_28" type="typeWE" route="right_left" depart="109" />
    <vehicle id="up_down_29" type="typeWE" route="up_down" depart="111" />
    <vehicle id="down_up_30" type="typeWE" route="down_up" depart="112" />
    <vehicle id="left_right_31" type="typeWE" route="left_right" depart="118" />
    <vehicle id="up_down_32" type="typeWE" route="up_down" depart="121" />
    <vehicle id="up_down_33" type="typeWE" route="up_down" depart="126" />
    <vehicle id="up_down_34" type="typeWE" route="up_down" depart="128" />
    <vehicle id="up_down_35" type="typeWE" route="up_down" depart="136" />
    <vehicle id="down_right_36" type="typeWE" route="down_right" depart="137" />
    <vehicle id="down_up_37" type="typeWE" route="down_up" depart="146" />
    <vehicle id="right_left_38" type="typeWE" route="right_left" depart="150" />
    <vehicle id="up_down_39" type="typeWE" route="up_down" depart="151" />
    <vehicle id="up_down_40" type="typeWE" route="up_down" depart="155" />
    <vehicle id="up_down_41" type="typeWE" route="up_down" depart="159" />
    <vehicle id="right_left_42" type="typeWE" route="right_left" depart="162" />
    <vehicle id="left_right_43" type="typeWE" route="left_right" depart="164" />
    <vehicle id="down_up_44" type="typeWE" route="down_up" depart="170" />
    <vehicle id="up_down_45" type="typeWE" route="up_down" depart="173" />
    <vehicle id="down_up_46" type="typeWE" route="down_up" depart="174" />
    <vehicle id="right_left_47" type="typeWE" route="right_left" depart="177" />
    <vehicle id="down_up_48" type="typeWE" route="down_up" depart="178" />
    <vehicle id="up_down_49" type="typeWE" route="up_down" depart="179" />
    <vehicle id="down_right_50" type="typeWE" route="down_right" depart="179" />
    <vehicle id="down_up_51" type="typeWE" route="down_up" depart="182" />
    <vehicle id="down_up_52" type="typeWE" route="down_up" depart="183" />
    <vehicle id="up_down_53" type="typeWE" route="up_down" depart="189" />
    <vehicle id="up_down_54" type="typeWE" route="up_down" depart="200" />
    <vehicle id="right_left_55" type="typeWE" route="right_left" depart="206" />
    <vehicle id="up_left_56" type="typeWE" route="up_left" depart="213" />
    <vehicle id="right_left_57" type="typeWE" route="right_left" depart="215" />
    <vehicle id="right_up_58" type="typeWE" route="right_up" depart="220" />
    <vehicle id="right_left_59" type="typeWE" route="right_left" depart="225" />
    <vehicle id="down_left_60" type="typeWE" route="down_left" depart="225" />
    <vehicle id="down_up_61" type="typeWE" route="down_up" depart="228" />
    <vehicle id="right_left_62" type="typeWE" route="right_left" depart="232" />
    <vehicle id="up_down_63" type="typeWE" route="up_down" depart="233" />
    <vehicle id="up_down_64" type="typeWE" route="up_down" depart="237" />
    <vehicle id="down_up_65" type="typeWE" route="down_up" depart="240" />
    <vehicle id="down_left_66" type="typeWE" route="down_left" depart="247" />
    <vehicle id="up_down_67" type="typeWE" route="up_down" depart="249" />
    <vehicle id="down_up_68" type="typeWE" route="down_up" depart="251" />
    <vehicle id="down_up_69" type="typeWE" route="down_up" depart="256" />
    <vehicle id="left_right_70" type="typeWE" route="left_right" depart="259" />
    <vehicle id="down_up_71" type="typeWE" route="down_up" depart="259" />
    <vehicle id="left_right_72" type="typeWE" route="left_right" depart="260" />
    <vehicle id="down_left_73" type="typeWE" route="down_left" depart="262" />
    <vehicle id="up_right_74" type="typeWE" route="up_right" depart="263" />
    <vehicle id="up_down_75" type="typeWE" route="up_down" depart="265" />
    <vehicle id="right_left_76" type="typeWE" route="right_left" depart="269" />
    <vehicle id="left_right_77" type="typeWE" route="left_right" depart="276" />
    <vehicle id="left_right_78" type="typeWE" route="left_right" depart="277" />
    <vehicle id="down_left_79" type="typeWE" route="down_left" depart="279" />
    <vehicle id="right_down_80" type="typeWE" route="right_down" depart="281" />
    <vehicle id="right_left_81" type="typeWE" route="right_left" depart="284" />
    <vehicle id="up_down_82" type="typeWE" route="up_down" depart="286" />
    <vehicle id="right_left_83" type="typeWE" route="right_left" depart="289" />
    <vehicle id="left_right_84" type="typeWE" route="left_right" depart="290" />
    <vehicle id="up_down_85" type="typeWE" route="up_down" depart="296" />
    <vehicle id="down_up_86" type="typeWE" route="down_up" depart="309" />
    <vehicle id="down_up_87" type="typeWE" route="down_up" depart="320" />
    <vehicle id="left_right_88" type="typeWE" route="left_right" depart="327" />
    <vehicle id="right_left_89" type="typeWE" route="right_left" depart="336" />
    <vehicle id="down_up_90" type="typeWE" route="down_up" depart="340" />
    <vehicle id="up_down_91" type="typeWE" route="up_down" depart="348" />
    <vehicle id="left_up_92" type="typeWE" route="left_up" depart="350" />
    <vehicle id="down_up_93" type="typeWE" route="down_up" depart="352" />
    <vehicle id="down_up_94" type="typeWE" route="down_up" depart="354" />
    <vehicle id="down_up_95" type="typeWE" route="down_up" depart="361" />
    <vehicle id="up_down_96" type="typeWE" route="up_down" depart="362" />
    <vehicle id="down_up_97" type="typeWE" route="down_up" depart="362" />
    <vehicle id="right_left_98" type="typeWE" route="right_left" depart="367" />
    <vehicle id="down_up_99" type="typeWE" route="down_up" depart="370" />
    <vehicle id="left_right_100" type="typeWE" route="left_right" depart="371" />
    <vehicle id="right_left_101" type="typeWE" route="right_left" depart="372" />
    <vehicle id="down_up_102" type="typeWE" route="down_up" depart="374" />
    <vehicle id="up_down_103" type="typeWE" route="up_down" depart="376" />
    <vehicle id="up_down_104" type="typeWE" route="up_down" depart="377" />
    <vehicle id="up_down_105" type="typeWE" route="up_down" depart="380" />
    <vehicle id="down_up_106" type="typeWE" route="down_up" depart="382" />
    <vehicle id="down_right_107" type="typeWE" route="down_right" depart="386" />
    <vehicle id="left_right_108" type="typeWE" route="left_right" depart="391" />
    <vehicle id="right_down_109" type="typeWE" route="right_down" depart="392" />
    <vehicle id="right_up_110" type="typeWE" route="right_up" depart="403" />
    <vehicle id="up_down_111" type="typeWE" route="up_down" depart="405" />
    <vehicle id="down_up_112" type="typeWE" route="down_up" depart="408" />
    <vehicle id="up_down_113" type="typeWE" route="up_down" depart="409" />
    <vehicle id="down_up_114" type="typeWE" route="down_up" depart="410" />
    <vehicle id="up_down_115" type="typeWE" route="up_down" depart="414" />
    <vehicle id="down_up_116" type="typeWE" route="down_up" depart="415" />
    <vehicle id="down_up_117" type="typeWE" route="down_up" depart="416" />
    <vehicle id="down_up_118" type="typeWE" route="down_up" depart="420" />
    <vehicle id="right_up_119" type="typeWE" route="right_up" depart="421" />
    <vehicle id="down_up_120" type="typeWE" route="down_up" depart="425" />
    <vehicle id="down_left_121" type="typeWE" route="down_left" depart="429" />
    <vehicle id="right_down_122" type="typeWE" route="right_down" depart="434" />
    <vehicle id="left_up_123" type="typeWE" route="left_up" depart="435" />
    <vehicle id="down_up_124" type="typeWE" route="down_up" depart="440" />
    <vehicle id="up_right_125" type="typeWE" route="up_right" depart="441" />
    <vehicle id="down_right_126" type="typeWE" route="down_right" depart="442" />
    <vehicle id="right_left_127" type="typeWE" route="right_left" depart="445" />
    <vehicle id="down_right_128" type="typeWE" route="down_right" depart="449" />
    <vehicle id="right_left_129" type="typeWE" route="right_left" depart="451" />
    <vehicle id="left_right_130" type="typeWE" route="left_right" depart="452" />
    <vehicle id="down_up_131" type="typeWE" route="down_up" depart="453" />
    <vehicle id="up_down_132" type="typeWE" route="up_down" depart="461" />
    <vehicle id="right_left_133" type="typeWE" route="right_left" depart="464" />
    <vehicle id="right_left_134" type="typeWE" route="right_left" depart="466" />
    <vehicle id="down_up_135" type="typeWE" route="down_up" depart="477" />
    <vehicle id="right_left_136" type="typeWE" route="right_left" depart="487" />
    <vehicle id="right_left_137" type="typeWE" route="right_left" depart="496" />
    <vehicle id="down_up_138" type="typeWE" route="down_up" depart="509" />
    <vehicle id="down_up_139" type="typeWE" route="down_up" depart="510" />
    <vehicle id="up_down_140" type="typeWE" route="up_down" depart="516" />
    <vehicle id="down_left_141" type="typeWE" route="down_left" depart="519" />
    <vehicle id="right_up_142" type="typeWE" route="right_up" depart="521" />
    <vehicle id="up_down_143" type="typeWE" route="up_down" depart="528" />
    <vehicle id="right_left_144" type="typeWE" route="right_left" depart="530" />
    <vehicle id="right_left_145" type="typeWE" route="right_left" depart="546" />
    <vehicle id="left_right_146" type="typeWE" route="left_right" depart="550" />
    <vehicle id="right_left_147" type="typeWE" route="right_left" depart="551" />
    <vehicle id="down_left_148" type="typeWE" route="down_left" depart="553" />
    <vehicle id="up_right_149" type="typeWE" route="up_right" depart="554" />
    <vehicle id="left_right_150" type="typeWE" route="left_right" depart="555" />
    <vehicle id="left_right_151" type="typeWE" route="left_right" depart="562" />
    <vehicle id="up_down_152" type="typeWE" route="up_down" depart="574" />
    <vehicle id="up_left_153" type="typeWE" route="up_left" depart="577" />
    <vehicle id="up_down_154" type="typeWE" route="up_down" depart="579" />
    <vehicle id="up_down_155" type="typeWE" route="up_down" depart="584" />
    <vehicle id="down_up_156" type="typeWE" route="down_up" depart="588" />
    <vehicle id="up_right_157" type="typeWE" route="up_right" depart="589" />
    <vehicle id="down_up_158" type="typeWE" route="down_up" depart="596" />
    <vehicle id="right_left_159" type="typeWE" route="right_left" depart="599" />
    <vehicle id="left_right_160" type="typeWE" route="left_right" depart="612" />
    <vehicle id="up_down_161" type="typeWE" route="up_down" depart="617" />
    <vehicle id="down_up_162" type="typeWE" route="down_up" depart="620" />
    <vehicle id="left_right_163" type="typeWE" route="left_right" depart="624" />
    <vehicle id="right_left_164" type="typeWE" route="right_left" depart="625" />
    <vehicle id="left_right_165" type="typeWE" route="left_right" depart="629" />
    <vehicle id="up_down_166" type="typeWE" route="up_down" depart="630" />
    <vehicle id="left_right_167" type="typeWE" route="left_right" depart="631" />
    <vehicle id="up_down_168" type="typeWE" route="up_down" depart="631" />
    <vehicle id="left_right_169" type="typeWE" route="left_right" depart="634" />
    <vehicle id="up_right_170" type="typeWE" route="up_right" depart="641" />
    <vehicle id="up_down_171" type="typeWE" route="up_down" depart="648" />
    <vehicle id="up_down_172" type="typeWE" route="up_down" depart="656" />
    <vehicle id="left_down_173" type="typeWE" route="left_down" depart="658" />
    <vehicle id="down_up_174" type="typeWE" route="down_up" depart="658" />
    <vehicle id="left_right_175" type="typeWE" route="left_right" depart="666" />
    <vehicle id="left_right_176" type="typeWE" route="left_right" depart="668" />
    <vehicle id="left_right_177" type="typeWE" route="left_right" depart="671" />
    <vehicle id="down_up_178" type="typeWE" route="down_up" depart="685" />
    <vehicle id="right_up_179" type="typeWE" route="right_up" depart="686" />
    <vehicle id="right_left_180" type="typeWE" route="right_left" depart="689" />
    <vehicle id="left_right_181" type="typeWE" route="left_right" depart="690" />
    <vehicle id="left_down_182" type="typeWE" route="left_down" depart="691" />
    <vehicle id="right_left_183" type="typeWE" route="right_left" depart="697" />
    <vehicle id="right_left_184" type="typeWE" route="right_left" depart="698" />
    <vehicle id="up_down_185" type="typeWE" route="up_down" depart="702" />
    <vehicle id="right_left_186" type="typeWE" route="right_left" depart="705" />
    <vehicle id="down_up_187" type="typeWE" route="down_up" depart="706" />
    <vehicle id="down_up_188" type="typeWE" route="down_up" depart="716" />
    <vehicle id="up_down_189" type="typeWE" route="up_down" depart="723" />
    <vehicle id="down_up_190" type="typeWE" route="down_up" depart="727" />
    <vehicle id="down_up_191" type="typeWE" route="down_up" depart="733" />
    <vehicle id="right_left_192" type="typeWE" route="right_left" depart="737" />
    <vehicle id="down_right_193" type="typeWE" route="down_right" depart="743" />
    <vehicle id="left_right_194" type="typeWE" route="left_right" depart="746" />
    <vehicle id="up_down_195" type="typeWE" route="up_down" depart="747" />
    <vehicle id="down_left_196" type="typeWE" route="down_left" depart="754" />
    <vehicle id="down_left_197" type="typeWE" route="down_left" depart="761" />
    <vehicle id="right_left_198" type="typeWE" route="right_left" depart="765" />
    <vehicle id="up_down_199" type="typeWE" route="up_down" depart="773" />
    <vehicle id="down_up_200" type="typeWE" route="down_up" depart="774" />
    <vehicle id="up_down_201" type="typeWE" route="up_down" depart="776" />
    <vehicle id="left_right_202" type="typeWE" route="left_right" depart="778" />
    <vehicle id="down_right_203" type="typeWE" route="down_right" depart="786" />
    <vehicle id="left_right_204" type="typeWE" route="left_right" depart="789" />
    <vehicle id="up_down_205" type="typeWE" route="up_down" depart="791" />
    <vehicle id="right_left_206" type="typeWE" route="right_left" depart="792" />
    <vehicle id="left_down_207" type="typeWE" route="left_down" depart="794" />
    <vehicle id="left_right_208" type="typeWE" route="left_right" depart="813" />
    <vehicle id="right_left_209" type="typeWE" route="right_left" depart="813" />
    <vehicle id="left_up_210" type="typeWE" route="left_up" depart="818" />
    <vehicle id="up_down_211" type="typeWE" route="up_down" depart="822" />
    <vehicle id="up_right_212" type="typeWE" route="up_right" depart="829" />
    <vehicle id="up_down_213" type="typeWE" route="up_down" depart="831" />
    <vehicle id="right_left_214" type="typeWE" route="right_left" depart="833" />
    <vehicle id="up_down_215" type="typeWE" route="up_down" depart="840" />
    <vehicle id="down_left_216" type="typeWE" route="down_left" depart="849" />
    <vehicle id="down_up_217" type="typeWE" route="down_up" depart="868" />
    <vehicle id="up_down_218" type="typeWE" route="up_down" depart="869" />
    <vehicle id="right_down_219" type="typeWE" route="right_down" depart="870" />
    <vehicle id="up_down_220" type="typeWE" route="up_down" depart="873" />
    <vehicle id="down_up_221" type="typeWE" route="down_up" depart="873" />
    <vehicle id="up_down_222" type="typeWE" route="up_down" depart="884" />
    <vehicle id="down_left_223" type="typeWE" route="down_left" depart="884" />
    <vehicle id="left_right_224" type="typeWE" route="left_right" depart="887" />
    <vehicle id="right_up_225" type="typeWE" route="right_up" depart="892" />
    <vehicle id="down_up_226" type="typeWE" route="down_up" depart="894" />
    <vehicle id="up_right_227" type="typeWE" route="up_right" depart="895" />
    <vehicle id="right_down_228" type="typeWE" route="right_down" depart="896" />
    <vehicle id="up_down_229" type="typeWE" route="up_down" depart="901" />
    <vehicle id="down_up_230" type="typeWE" route="down_up" depart="901" />
    <vehicle id="up_down_231" type="typeWE" route="up_down" depart="904" />
    <vehicle id="up_down_232" type="typeWE" route="up_down" depart="906" />
    <vehicle id="right_left_233" type="typeWE" route="right_left" depart="907" />
    <vehicle id="down_up_234" type="typeWE" route="down_up" depart="909" />
    <vehicle id="down_left_235" type="typeWE" route="down_left" depart="912" />
    <vehicle id="up_down_236" type="typeWE" route="up_down" depart="914" />
    <vehicle id="up_down_237" type="typeWE" route="up_down" depart="915" />
    <vehicle id="down_left_238" type="typeWE" route="down_left" depart="915" />
    <vehicle id="up_down_239" type="typeWE" route="up_down" depart="921" />
    <vehicle id="right_left_240" type="typeWE" route="right_left" depart="925" />
    <vehicle id="right_left_241" type="typeWE" route="right_left" depart="931" />
    <vehicle id="up_down_242" type="typeWE" route="up_down" depart="938" />
    <vehicle id="right_left_243" type="typeWE" route="right_left" depart="941" />
    <vehicle id="down_up_244" type="typeWE" route="down_up" depart="943" />
    <vehicle id="left_right_245" type="typeWE" route="left_right" depart="944" />
    <vehicle id="down_left_246" type="typeWE" route="down_left" depart="948" />
    <vehicle id="right_left_247" type="typeWE" route="right_left" depart="950" />
    <vehicle id="down_up_248" type="typeWE" route="down_up" depart="953" />
    <vehicle id="left_right_249" type="typeWE" route="left_right" depart="961" />
    <vehicle id="right_left_250" type="typeWE" route="right_left" depart="972" />
    <vehicle id="down_up_251" type="typeWE" route="down_up" depart="972" />
    <vehicle id="down_up_252" type="typeWE" route="down_up" depart="977" />
    <vehicle id="down_right_253" type="typeWE" route="down_right" depart="979" />
    <vehicle id="up_down_254" type="typeWE" route="up_down" depart="984" />
    <vehicle id="right_left_255" type="typeWE" route="right_left" depart="985" />
    <vehicle id="down_up_256" type="typeWE" route="down_up" depart="988" />
    <vehicle id="down_right_257" type="typeWE" route="down_right" depart="991" />
    <vehicle id="right_left_258" type="typeWE" route="right_left" depart="992" />
    <vehicle id="down_up_259" type="typeWE" route="down_up" depart="1000" />
    <vehicle id="up_down_260" type="typeWE" route="up_down" depart="1006" />
    <vehicle id="up_down_261" type="typeWE" route="up_down" depart="1009" />
    <vehicle id="up_down_262" type="typeWE" route="up_down" depart="1014" />
    <vehicle id="up_down_263" type="typeWE" route="up_down" depart="1015" />
    <vehicle id="left_right_264" type="typeWE" route="left_right" depart="1016" />
    <vehicle id="left_right_265" type="typeWE" route="left_right" depart="1017" />
    <vehicle id="up_down_266" type="typeWE" route="up_down" depart="1019" />
    <vehicle id="down_up_267" type="typeWE" route="down_up" depart="1022" />
    <vehicle id="up_down_268" type="typeWE" route="up_down" depart="1029" />
    <vehicle id="down_up_269" type="typeWE" route="down_up" depart="1034" />
    <vehicle id="right_left_270" type="typeWE" route="right_left" depart="1035" />
    <vehicle id="down_up_271" type="typeWE" route="down_up" depart="1038" />
    <vehicle id="right_up_272" type="typeWE" route="right_up" depart="1043" />
    <vehicle id="down_up_273" type="typeWE" route="down_up" depart="1044" />
    <vehicle id="up_down_274" type="typeWE" route="up_down" depart="1046" />
    <vehicle id="up_down_275" type="typeWE" route="up_down" depart="1047" />
    <vehicle id="up_down_276" type="typeWE" route="up_down" depart="1058" />
    <vehicle id="right_down_277" type="typeWE" route="right_down" depart="1069" />
    <vehicle id="right_left_278" type="typeWE" route="right_left" depart="1072" />
    <vehicle id="down_up_279" type="typeWE" route="down_up" depart="1072" />
    <vehicle id="up_down_280" type="typeWE" route="up_down" depart="1080" />
    <vehicle id="up_down_281" type="typeWE" route="up_down" depart="1090" />
    <vehicle id="left_right_282" type="typeWE" route="left_right" depart="1095" />
    <vehicle id="up_left_283" type="typeWE" route="up_left" depart="1099" />
    <vehicle id="right_down_284" type="typeWE" route="right_down" depart="1111" />
    <vehicle id="down_up_285" type="typeWE" route="down_up" depart="1117" />
    <vehicle id="left_right_286" type="typeWE" route="left_right" depart="1124" />
    <vehicle id="right_left_287" type="typeWE" route="right_left" depart="1125" />
    <vehicle id="left_right_288" type="typeWE" route="left_right" depart="1130" />
    <vehicle id="up_down_289" type="typeWE" route="up_down" depart="1130" />
    <vehicle id="left_right_290" type="typeWE" route="left_right" depart="1136" />
    <vehicle id="up_down_291" type="typeWE" route="up_down" depart="1136" />
    <vehicle id="up_right_292" type="typeWE" route="up_right" depart="1140" />
    <vehicle id="right_left_293" type="typeWE" route="right_left" depart="1141" />
    <vehicle id="up_down_294" type="typeWE" route="up_down" depart="1161" />
    <vehicle id="up_down_295" type="typeWE" route="up_down" depart="1162" />
    <vehicle id="left_right_296" type="typeWE" route="left_right" depart="1178" />
    <vehicle id="down_up_297" type="typeWE" route="down_up" depart="1182" />
    <vehicle id="down_up_298" type="typeWE" route="down_up" depart="1185" />
    <vehicle id="left_right_299" type="typeWE" route="left_right" depart="1187" />
    <vehicle id="left_right_300" type="typeWE" route="left_right" depart="1188" />
    <vehicle id="down_up_301" type="typeWE" route="down_up" depart="1198" />
    <vehicle id="down_up_302" type="typeWE" route="down_up" depart="1203" />
    <vehicle id="down_up_303" type="typeWE" route="down_up" depart="1207" />
    <vehicle id="right_left_304" type="typeWE" route="right_left" depart="1212" />
    <vehicle id="down_up_305" type="typeWE" route="down_up" depart="1215" />
    <vehicle id="left_right_306" type="typeWE" route="left_right" depart="1221" />
    <vehicle id="left_right_307" type="typeWE" route="left_right" depart="1222" />
    <vehicle id="right_left_308" type="typeWE" route="right_left" depart="1224" />
    <vehicle id="down_up_309" type="typeWE" route="down_up" depart="1226" />
    <vehicle id="down_right_310" type="typeWE" route="down_right" depart="1241" />
    <vehicle id="down_up_311" type="typeWE" route="down_up" depart="1251" />
    <vehicle id="right_left_312" type="typeWE" route="right_left" depart="1252" />
    <vehicle id="down_up_313" type="typeWE" route="down_up" depart="1253" />
    <vehicle id="right_left_314" type="typeWE" route="right_left" depart="1256" />
    <vehicle id="up_down_315" type="typeWE" route="up_down" depart="1260" />
    <vehicle id="right_left_316" type="typeWE" route="right_left" depart="1266" />
    <vehicle id="down_up_317" type="typeWE" route="down_up" depart="1277" />
    <vehicle id="down_right_318" type="typeWE" route="down_right" depart="1287" />
    <vehicle id="down_left_319" type="typeWE" route="down_left" depart="1289" />
    <vehicle id="left_right_320" type="typeWE" route="left_right" depart="1292" />
    <vehicle id="down_up_321" type="typeWE" route="down_up" depart="1302" />
    <vehicle id="up_down_322" type="typeWE" route="up_down" depart="1309" />
    <vehicle id="down_right_323" type="typeWE" route="down_right" depart="1317" />
    <vehicle id="right_left_324" type="typeWE" route="right_left" depart="1318" />
    <vehicle id="up_down_325" type="typeWE" route="up_down" depart="1323" />
    <vehicle id="down_up_326" type="typeWE" route="down_up" depart="1326" />
    <vehicle id="right_left_327" type="typeWE" route="right_left" depart="1328" />
    <vehicle id="up_left_328" type="typeWE" route="up_left" depart="1329" />
    <vehicle id="left_right_329" type="typeWE" route="left_right" depart="1335" />
    <vehicle id="left_right_330" type="typeWE" route="left_right" depart="1338" />
    <vehicle id="down_up_331" type="typeWE" route="down_up" depart="1341" />
    <vehicle id="left_right_332" type="typeWE" route="left_right" depart="1347" />
    <vehicle id="up_down_333" type="typeWE" route="up_down" depart="1350" />
    <vehicle id="down_right_334" type="typeWE" route="down_right" depart="1351" />
    <vehicle id="down_up_335" type="typeWE" route="down_up" depart="1352" />
    <vehicle id="up_down_336" type="typeWE" route="up_down" depart="1353" />
    <vehicle id="up_down_337" type="typeWE" route="up_down" depart="1356" />
    <vehicle id="left_right_338" type="typeWE" route="left_right" depart="1371" />
    <vehicle id="left_right_339" type="typeWE" route="left_right" depart="1383" />
    <vehicle id="up_right_340" type="typeWE" route="up_right" depart="1383" />
    <vehicle id="left_down_341" type="typeWE" route="left_down" depart="1384" />
    <vehicle id="down_up_342" type="typeWE" route="down_up" depart="1384" />
    <vehicle id="down_up_343" type="typeWE" route="down_up" depart="1387" />
    <vehicle id="left_right_344" type="typeWE" route="left_right" depart="1401" />
    <vehicle id="up_down_345" type="typeWE" route="up_down" depart="1405" />
    <vehicle id="down_up_346" type="typeWE" route="down_up" depart="1405" />
    <vehicle id="up_down_347" type="typeWE" route="up_down" depart="1407" />
    <vehicle id="down_left_348" type="typeWE" route="down_left" depart="1411" />
    <vehicle id="up_down_349" type="typeWE" route="up_down" depart="1416" />
    <vehicle id="left_right_350" type="typeWE" route="left_right" depart="1419" />
    <vehicle id="up_down_351" type="typeWE" route="up_down" depart="1419" />
    <vehicle id="down_up_352" type="typeWE" route="down_up" depart="1419" />
    <vehicle id="right_left_353" type="typeWE" route="right_left" depart="1425" />
    <vehicle id="up_right_354" type="typeWE" route="up_right" depart="1431" />
    <vehicle id="down_up_355" type="typeWE" route="down_up" depart="1443" />
    <vehicle id="right_down_356" type="typeWE" route="right_down" depart="1458" />
    <vehicle id="down_up_357" type="typeWE" route="down_up" depart="1463" />
    <vehicle id="up_down_358" type="typeWE" route="up_down" depart="1468" />
    <vehicle id="down_up_359" type="typeWE" route="down_up" depart="1470" />
    <vehicle id="up_down_360" type="typeWE" route="up_down" depart="1472" />
    <vehicle id="right_left_361" type="typeWE" route="right_left" depart="1473" />
    <vehicle id="up_down_362" type="typeWE" route="up_down" depart="1473" />
    <vehicle id="down_up_363" type="typeWE" route="down_up" depart="1479" />
    <vehicle id="down_left_364" type="typeWE" route="down_left" depart="1483" />
    <vehicle id="left_right_365" type="typeWE" route="left_right" depart="1484" />
    <vehicle id="right_left_366" type="typeWE" route="right_left" depart="1486" />
    <vehicle id="left_right_367" type="typeWE" route="left_right" depart="1487" />
    <vehicle id="left_right_368" type="typeWE" route="left_right" depart="1496" />
    <vehicle id="right_down_369" type="typeWE" route="right_down" depart="1497" />
    <vehicle id="down_left_370" type="typeWE" route="down_left" depart="1497" />
    <vehicle id="right_left_371" type="typeWE" route="right_left" depart="1504" />