<routes>
        <vType id="typeWE" accel="2.5" decel="4.5" sigma="0.5" length="5" minGap="2.5" maxSpeed="40" guiShape="passenger"/>

        <route id="left_up" edges="E4 -E2 -E1 -E5"/>
        <route id="left_right" edges="E4 -E2 -E3 -E6"/>
        <route id="left_down" edges="E4 -E2 E0 -E7"/>

        <route id="right_up" edges="E6 E3 -E1 -E5"/>
        <route id="right_left" edges="E6 E3 E2 -E4"/>
        <route id="right_down" edges="E6 E3 E0 -E7"/>

        <route id="down_up" edges="E7 -E0 -E1 -E5"/>
        <route id="down_left" edges="E7 -E0 E2 -E4"/>
        <route id="down_right" edges="E7 -E0 -E3 -E6"/>

        <route id="up_down" edges="E5 E1 E0 -E7"/>
        <route id="up_left" edges="E5 E1 E2 -E4"/>
        <route id="up_right" edges="E5 E1 -E3 -E6"/>
    <vehicle id="up_down_0" type="typeWE" route="up_down" depart="1" />
    <vehicle id="down_up_1" type="typeWE" route="down_up" depart="1" />
    <vehicle id="down_left_2" type="typeWE" route="down_left" depart="4" />
    <vehicle id="up_down_3" type="typeWE" route="up_down" depart="7" />
    <vehicle id="left_right_4" type="typeWE" route="left_right" depart="13" />
    <vehicle id="right_left_5" type="typeWE" route="right_left" depart="18" />
    <vehicle id="left_right_6" type="typeWE" route="left_right" depart="25" />
    <vehicle id="up_down_7" type="typeWE" route="up_down" depart="29" />
    <vehicle id="up_down_8" type="typeWE" route="up_down" depart="30" />
    <vehicle id="right_down_9" type="typeWE" route="right_down" depart="31" />
    <vehicle id="up_left_10" type="typeWE" route="up_left" depart="35" />
    <vehicle id="up_down_11" type="typeWE" route="up_down" depart="36" />
    <vehicle id="down_up_12" type="typeWE" route="down_up" depart="41" />
    <vehicle id="up_left_13" type="typeWE" route="up_left" depart="53" />
    <vehicle id="down_up_14" type="typeWE" route="down_up" depart="59" />
    <vehicle id="right_left_15" type="typeWE" route="right_left" depart="60" />
    <vehicle id="down_up_16" type="typeWE" route="down_up" depart="75" />
    <vehicle id="right_left_17" type="typeWE" route="right_left" depart="76" />
    <vehicle id="up_down_18" type="typeWE" route="up_down" depart="78" />
    <vehicle id="up_down_19" type="typeWE" route="up_down" depart="81" />
    <vehicle id="up_down_20" type="typeWE" route="up_down" depart="86" />
    <vehicle id="up_down_21" type="typeWE" route="up_down" depart="88" />
    <vehicle id="down_up_22" type="typeWE" route="down_up" depart="88" />
    <vehicle id="down_up_23" type="typeWE" route="down_up" depart="93" />
    <vehicle id="up_down_24" type="typeWE" route="up_down" depart="99" />
    <vehicle id="down_up_25" type="typeWE" route="down_up" depart="100" />
    <vehicle id="up_down_26" type="typeWE" route="up_down" depart="101" />
    <vehicle id="right_down_27" type="typeWE" route="right_down" depart="105" />
    <vehicle id="right_left_28" type="typeWE" route="right_left" depart="109" />
    <vehicle id="up_down_29" type="typeWE" route="up_down" depart="111" />
    <vehicle id="down_up_30" type="typeWE" route="down_up" depart="112" />
    <vehicle id="up_down_31" type="typeWE" route="up_down" depart="116" />
    <vehicle id="down_up_32" type="typeWE" route="down_up" depart="117" />
    <vehicle id="right_left_33" type="typeWE" route="right_left" depart="121" />
    <vehicle id="right_left_34" type="typeWE" route="right_left" depart="126" />
    <vehicle id="right_left_35" type="typeWE" route="right_left" depart="128" />
    <vehicle id="down_up_36" type="typeWE" route="down_up" depart="131" />
    <vehicle id="left_right_37" type="typeWE" route="left_right" depart="136" />
    <vehicle id="right_up_38" type="typeWE" route="right_up" depart="137" />
    <vehicle id="left_right_39" type="typeWE" route="left_right" depart="150" />
    <vehicle id="right_left_40" type="typeWE" route="right_left" depart="151" />
    <vehicle id="right_left_41" type="typeWE" route="right_left" depart="155" />
    <vehicle id="right_left_42" type="typeWE" route="right_left" depart="159" />
    <vehicle id="left_right_43" type="typeWE" route="left_right" depart="162" />
    <vehicle id="down_up_44" type="typeWE" route="down_up" depart="163" />
    <vehicle id="up_down_45" type="typeWE" route="up_down" depart="170" />
    <vehicle id="right_left_46" type="typeWE" route="right_left" depart="173" />
    <vehicle id="up_down_47" type="typeWE" route="up_down" depart="174" />
    <vehicle id="down_up_48" type="typeWE" route="down_up" depart="178" />
    <vehicle id="up_down_49" type="typeWE" route="up_down" depart="179" />
    <vehicle id="down_right_50" type="typeWE" route="down_right" depart="179" />
    <vehicle id="down_up_51" type="typeWE" route="down_up" depart="182" />
    <vehicle id="down_up_52" type="typeWE" route="down_up" depart="183" />
    <vehicle id="up_down_53" type="typeWE" route="up_down" depart="189" />
    <vehicle id="up_down_54" type="typeWE" route="up_down" depart="200" />
    <vehicle id="right_left_55" type="typeWE" route="right_left" depart="206" />
    <vehicle id="up_left_56" type="typeWE" route="up_left" depart="213" />
    <vehicle id="right_left_57" type="typeWE" route="right_left" depart="215" />
    <vehicle id="up_down_58" type="typeWE" route="up_down" depart="225" />
    <vehicle id="left_up_59" type="typeWE" route="left_up" depart="226" />
    <vehicle id="left_right_60" type="typeWE" route="left_right" depart="229" />
    <vehicle id="up_down_61" type="typeWE" route="up_down" depart="232" />
    <vehicle id="down_up_62" type="typeWE" route="down_up" depart="233" />
    <vehicle id="down_up_63" type="typeWE" route="down_up" depart="237" />
    <vehicle id="left_right_64" type="typeWE" route="left_right" depart="241" />
    <vehicle id="left_right_65" type="typeWE" route="left_right" depart="250" />
    <vehicle id="right_left_66" type="typeWE" route="right_left" depart="252" />
    <vehicle id="right_left_67" type="typeWE" route="right_left" depart="257" />
    <vehicle id="up_down_68" type="typeWE" route="up_down" depart="259" />
    <vehicle id="right_left_69" type="typeWE" route="right_left" depart="260" />
    <vehicle id="up_down_70" type="typeWE" route="up_down" depart="260" />
    <vehicle id="right_down_71" type="typeWE" route="right_down" depart="263" />
    <vehicle id="left_up_72" type="typeWE" route="left_up" depart="264" />
    <vehicle id="left_right_73" type="typeWE" route="left_right" depart="266" />
    <vehicle id="down_up_74" type="typeWE" route="down_up" depart="269" />
    <vehicle id="down_right_75" type="typeWE" route="down_right" depart="275" />
    <vehicle id="right_left_76" type="typeWE" route="right_left" depart="276" />
    <vehicle id="right_left_77" type="typeWE" route="right_left" depart="277" />
    <vehicle id="up_down_78" type="typeWE" route="up_down" depart="278" />
    <vehicle id="down_left_79" type="typeWE" route="down_left" depart="279" />
    <vehicle id="right_down_80" type="typeWE" route="right_down" depart="281" />
    <vehicle id="right_left_81" type="typeWE" route="right_left" depart="284" />
    <vehicle id="up_down_82" type="typeWE" route="up_down" depart="286" />
    <vehicle id="right_left_83" type="typeWE" route="right_left" depart="289" />
    <vehicle id="left_right_84" type="typeWE" route="left_right" depart="290" />
    <vehicle id="down_up_85" type="typeWE" route="down_up" depart="293" />
    <vehicle id="right_left_86" type="typeWE" route="right_left" depart="296" />
    <vehicle id="up_down_87" type="typeWE" route="up_down" depart="309" />
    <vehicle id="up_down_88" type="typeWE" route="up_down" depart="320" />
    <vehicle id="down_up_89" type="typeWE" route="down_up" depart="326" />
    <vehicle id="left_right_90" type="typeWE" route="left_right" depart="336" />
    <vehicle id="down_left_91" type="typeWE" route="down_left" depart="338" />
    <vehicle id="right_left_92" type="typeWE" route="right_left" depart="340" />
    <vehicle id="down_left_93" type="typeWE" route="down_left" depart="349" />
    <vehicle id="up_down_94" type="typeWE" route="up_down" depart="352" />
    <vehicle id="up_down_95" type="typeWE" route="up_down" depart="354" />
    <vehicle id="up_down_96" type="typeWE" route="up_down" depart="361" />
    <vehicle id="down_up_97" type="typeWE" route="down_up" depart="362" />
    <vehicle id="right_left_98" type="typeWE" route="right_left" depart="367" />
    <vehicle id="down_up_99" type="typeWE" route="down_up" depart="370" />
    <vehicle id="left_right_100" type="typeWE" route="left_right" depart="371" />
    <vehicle id="right_left_101" type="typeWE" route="right_left" depart="372" />
    <vehicle id="down_up_102" type="typeWE" route="down_up" depart="374" />
    <vehicle id="up_down_103" type="typeWE" route="up_down" depart="376" />
    <vehicle id="up_down_104" type="typeWE" route="up_down" depart="377" />
    <vehicle id="up_down_105" type="typeWE" route="up_down" depart="380" />
    <vehicle id="down_up_106" type="typeWE" route="down_up" depart="382" />
    <vehicle id="down_right_107" type="typeWE" route="down_right" depart="386" />
    <vehicle id="left_right_108" type="typeWE" route="left_right" depart="391" />
    <vehicle id="right_down_109" type="typeWE" route="right_down" depart="392" />
    <vehicle id="right_up_110" type="typeWE" route="right_up" depart="403" />
    <vehicle id="up_down_111" type="typeWE" route="up_down" depart="405" />
    <vehicle id="down_up_112" type="typeWE" route="down_up" depart="408" />
    <vehicle id="up_down_113" type="typeWE" route="up_down" depart="409" />
    <vehicle id="down_up_114" type="typeWE" route="down_up" depart="410" />
    <vehicle id="up_down_115" type="typeWE" route="up_down" depart="414" />
    <vehicle id="down_up_116" type="typeWE" route="down_up" depart="415" />
    <vehicle id="down_up_117" type="typeWE" route="down_up" depart="416" />
    <vehicle id="down_up_118" type="typeWE" route="down_up" depart="420" />
    <vehicle id="right_up_119" type="typeWE" route="right_up" depart="421" />
    <vehicle id="down_up_120" type="typeWE" route="down_up" depart="425" />
    <vehicle id="down_left_121" type="typeWE" route="down_left" depart="429" />
    <vehicle id="right_down_122" type="typeWE" route="right_down" depart="434" />
    <vehicle id="left_up_123" type="typeWE" route="left_up" depart="435" />
    <vehicle id="down_up_124" type="typeWE" route="down_up" depart="440" />
    <vehicle id="up_right_125" type="typeWE" route="up_right" depart="441" />
    <vehicle id="down_right_126" type="typeWE" route="down_right" depart="442" />
    <vehicle id="right_left_127" type="typeWE" route="right_left" depart="445" />
    <vehicle id="down_right_128" type="typeWE" route="down_right" depart="449" />
    <vehicle id="right_left_129" type="typeWE" route="right_left" depart="451" />
    <vehicle id="left_right_130" type="typeWE" route="left_right" depart="452" />
    <vehicle id="down_up_131" type="typeWE" route="down_up" depart="453" />
    <vehicle id="up_down_132" type="typeWE" route="up_down" depart="461" />
    <vehicle id="up_down_133" type="typeWE" route="up_down" depart="463" />
    <vehicle id="left_right_134" type="typeWE" route="left_right" depart="464" />
    <vehicle id="left_right_135" type="typeWE" route="left_right" depart="466" />
    <vehicle id="up_down_136" type="typeWE" route="up_down" depart="477" />
    <vehicle id="down_up_137" type="typeWE" route="down_up" depart="480" />
    <vehicle id="down_up_138" type="typeWE" route="down_up" depart="486" />
    <vehicle id="down_up_139" type="typeWE" route="down_up" depart="495" />
    <vehicle id="right_left_140" type="typeWE" route="right_left" depart="509" />
    <vehicle id="right_left_141" type="typeWE" route="right_left" depart="510" />
    <vehicle id="right_left_142" type="typeWE" route="right_left" depart="516" />
    <vehicle id="left_down_143" type="typeWE" route="left_down" depart="521" />
    <vehicle id="right_left_144" type="typeWE" route="right_left" depart="530" />
    <vehicle id="right_left_145" type="typeWE" route="right_left" depart="546" />
    <vehicle id="left_right_146" type="typeWE" route="left_right" depart="550" />
    <vehicle id="right_left_147" type="typeWE" route="right_left" depart="551" />
    <vehicle id="down_left_148" type="typeWE" route="down_left" depart="553" />
    <vehicle id="up_right_149" type="typeWE" route="up_right" depart="554" />
    <vehicle id="left_right_150" type="typeWE" route="left_right" depart="555" />
    <vehicle id="right_left_151" type="typeWE" route="right_left" depart="560" />
    <vehicle id="down_up_152" type="typeWE" route="down_up" depart="561" />
    <vehicle id="down_up_153" type="typeWE" route="down_up" depart="563" />
    <vehicle id="up_down_154" type="typeWE" route="up_down" depart="571" />
    <vehicle id="down_up_155" type="typeWE" route="down_up" depart="573" />
    <vehicle id="down_right_156" type="typeWE" route="down_right" depart="576" />
    <vehicle id="down_up_157" type="typeWE" route="down_up" depart="578" />
    <vehicle id="down_up_158" type="typeWE" route="down_up" depart="583" />
    <vehicle id="up_down_159" type="typeWE" route="up_down" depart="586" />
    <vehicle id="down_up_160" type="typeWE" route="down_up" depart="587" />
    <vehicle id="up_right_161" type="typeWE" route="up_right" depart="588" />
    <vehicle id="down_up_162" type="typeWE" route="down_up" depart="595" />
    <vehicle id="right_left_163" type="typeWE" route="right_left" depart="598" />
    <vehicle id="down_up_164" type="typeWE" route="down_up" depart="605" />
    <vehicle id="down_up_165" type="typeWE" route="down_up" depart="610" />
    <vehicle id="right_left_166" type="typeWE" route="right_left" depart="616" />
    <vehicle id="up_down_167" type="typeWE" route="up_down" depart="619" />
    <vehicle id="down_up_168" type="typeWE" route="down_up" depart="622" />
    <vehicle id="left_right_169" type="typeWE" route="left_right" depart="624" />
    <vehicle id="up_down_170" type="typeWE" route="up_down" depart="626" />
    <vehicle id="up_down_171" type="typeWE" route="up_down" depart="627" />
    <vehicle id="left_right_172" type="typeWE" route="left_right" depart="629" />
    <vehicle id="up_down_173" type="typeWE" route="up_down" depart="629" />
    <vehicle id="left_right_174" type="typeWE" route="left_right" depart="630" />
    <vehicle id="up_down_175" type="typeWE" route="up_down" depart="632" />
    <vehicle id="up_down_176" type="typeWE" route="up_down" depart="637" />
    <vehicle id="down_left_177" type="typeWE" route="down_left" depart="639" />
    <vehicle id="up_down_178" type="typeWE" route="up_down" depart="645" />
    <vehicle id="up_down_179" type="typeWE" route="up_down" depart="646" />
    <vehicle id="up_down_180" type="typeWE" route="up_down" depart="654" />
    <vehicle id="left_down_181" type="typeWE" route="left_down" depart="656" />
    <vehicle id="down_up_182" type="typeWE" route="down_up" depart="656" />
    <vehicle id="left_right_183" type="typeWE" route="left_right" depart="664" />
    <vehicle id="left_right_184" type="typeWE" route="left_right" depart="666" />
    <vehicle id="left_right_185" type="typeWE" route="left_right" depart="669" />
    <vehicle id="down_up_186" type="typeWE" route="down_up" depart="683" />
    <vehicle id="right_up_187" type="typeWE" route="right_up" depart="684" />
    <vehicle id="right_left_188" type="typeWE" route="right_left" depart="687" />
    <vehicle id="left_right_189" type="typeWE" route="left_right" depart="688" />
    <vehicle id="left_down_190" type="typeWE" route="left_down" depart="689" />
    <vehicle id="right_left_191" type="typeWE" route="right_left" depart="695" />
    <vehicle id="right_left_192" type="typeWE" route="right_left" depart="696" />
    <vehicle id="up_down_193" type="typeWE" route="up_down" depart="700" />
    <vehicle id="right_left_194" type="typeWE" route="right_left" depart="703" />
    <vehicle id="down_up_195" type="typeWE" route="down_up" depart="704" />
    <vehicle id="down_up_196" type="typeWE" route="down_up" depart="714" />
    <vehicle id="up_down_197" type="typeWE" route="up_down" depart="721" />
    <vehicle id="down_up_198" type="typeWE" route="down_up" depart="725" />
    <vehicle id="down_up_199" type="typeWE" route="down_up" depart="731" />
    <vehicle id="right_left_200" type="typeWE" route="right_left" depart="735" />
    <vehicle id="down_right_201" type="typeWE" route="down_right" depart="741" />
    <vehicle id="left_right_202" type="typeWE" route="left_right" depart="744" />
    <vehicle id="up_down_203" type="typeWE" route="up_down" depart="745" />
    <vehicle id="left_right_204" type="typeWE" route="left_right" depart="748" />
    <vehicle id="down_up_205" type="typeWE" route="down_up" depart="751" />
    <vehicle id="right_down_206" type="typeWE" route="right_down" depart="752" />
    <vehicle id="up_down_207" type="typeWE" route="up_down" depart="752" />
    <vehicle id="up_down_208" type="typeWE" route="up_down" depart="758" />
    <vehicle id="down_left_209" type="typeWE" route="down_left" depart="758" />
    <vehicle id="right_left_210" type="typeWE" route="right_left" depart="762" />
    <vehicle id="up_down_211" type="typeWE" route="up_down" depart="770" />
    <vehicle id="down_up_212" type="typeWE" route="down_up" depart="771" />
    <vehicle id="up_down_213" type="typeWE" route="up_down" depart="773" />
    <vehicle id="left_right_214" type="typeWE" route="left_right" depart="775" />
    <vehicle id="down_right_215" type="typeWE" route="down_right" depart="783" />
    <vehicle id="left_right_216" type="typeWE" route="left_right" depart="786" />
    <vehicle id="up_down_217" type="typeWE" route="up_down" depart="788" />
    <vehicle id="right_left_218" type="typeWE" route="right_left" depart="789" />
    <vehicle id="left_down_219" type="typeWE" route="left_down" depart="791" />
    <vehicle id="left_right_220" type="typeWE" route="left_right" depart="810" />
    <vehicle id="right_left_221" type="typeWE" route="right_left" depart="810" />
    <vehicle id="left_up_222" type="typeWE" route="left_up" depart="815" />
    <vehicle id="up_down_223" type="typeWE" route="up_down" depart="819" />
    <vehicle id="up_right_224" type="typeWE" route="up_right" depart="826" />
    <vehicle id="up_down_225" type="typeWE" route="up_down" depart="828" />
    <vehicle id="down_up_226" type="typeWE" route="down_up" depart="837" />
    <vehicle id="left_up_227" type="typeWE" route="left_up" depart="847" />
    <vehicle id="up_down_228" type="typeWE" route="up_down" depart="855" />
    <vehicle id="down_up_229" type="typeWE" route="down_up" depart="865" />
    <vehicle id="up_down_230" type="typeWE" route="up_down" depart="866" />
    <vehicle id="right_down_231" type="typeWE" route="right_down" depart="867" />
    <vehicle id="up_down_232" type="typeWE" route="up_down" depart="870" />
    <vehicle id="down_up_233" type="typeWE" route="down_up" depart="870" />
    <vehicle id="down_up_234" type="typeWE" route="down_up" depart="874" />
    <vehicle id="down_left_235" type="typeWE" route="down_left" depart="881" />
    <vehicle id="left_right_236" type="typeWE" route="left_right" depart="884" />
    <vehicle id="right_up_237" type="typeWE" route="right_up" depart="889" />
    <vehicle id="down_up_238" type="typeWE" route="down_up" depart="891" />
    <vehicle id="up_right_239" type="typeWE" route="up_right" depart="892" />
    <vehicle id="right_down_240" type="typeWE" route="right_down" depart="893" />
    <vehicle id="down_up_241" type="typeWE" route="down_up" depart="893" />
    <vehicle id="down_up_242" type="typeWE" route="down_up" depart="898" />
    <vehicle id="up_down_243" type="typeWE" route="up_down" depart="901" />
    <vehicle id="up_down_244" type="typeWE" route="up_down" depart="903" />
    <vehicle id="right_left_245" type="typeWE" route="right_left" depart="904" />
    <vehicle id="down_up_246" type="typeWE" route="down_up" depart="906" />
    <vehicle id="down_left_247" type="typeWE" route="down_left" depart="909" />
    <vehicle id="down_up_248" type="typeWE" route="down_up" depart="911" />
    <vehicle id="up_down_249" type="typeWE" route="up_down" depart="912" />
    <vehicle id="down_left_250" type="typeWE" route="down_left" depart="912" />
    <vehicle id="up_down_251" type="typeWE" route="up_down" depart="918" />
    <vehicle id="right_left_252" type="typeWE" route="right_left" depart="922" />
    <vehicle id="right_left_253" type="typeWE" route="right_left" depart="928" />
    <vehicle id="up_down_254" type="typeWE" route="up_down" depart="935" />
    <vehicle id="right_left_255" type="typeWE" route="right_left" depart="938" />
    <vehicle id="down_up_256" type="typeWE" route="down_up" depart="940" />
    <vehicle id="left_right_257" type="typeWE" route="left_right" depart="941" />
    <vehicle id="down_left_258" type="typeWE" route="down_left" depart="945" />
    <vehicle id="right_left_259" type="typeWE" route="right_left" depart="947" />
    <vehicle id="down_up_260" type="typeWE" route="down_up" depart="950" />
    <vehicle id="left_right_261" type="typeWE" route="left_right" depart="958" />
    <vehicle id="down_up_262" type="typeWE" route="down_up" depart="960" />
    <vehicle id="left_right_263" type="typeWE" route="left_right" depart="969" />
    <vehicle id="up_down_264" type="typeWE" route="up_down" depart="969" />
    <vehicle id="up_down_265" type="typeWE" route="up_down" depart="974" />
    <vehicle id="up_left_266" type="typeWE" route="up_left" depart="976" />
    <vehicle id="right_left_267" type="typeWE" route="right_left" depart="981" />
    <vehicle id="left_right_268" type="typeWE" route="left_right" depart="982" />
    <vehicle id="up_down_269" type="typeWE" route="up_down" depart="985" />
    <vehicle id="up_left_270" type="typeWE" route="up_left" depart="988" />
    <vehicle id="left_right_271" type="typeWE" route="left_right" depart="989" />
    <vehicle id="up_down_272" type="typeWE" route="up_down" depart="997" />
    <vehicle id="right_left_273" type="typeWE" route="right_left" depart="1003" />
    <vehicle id="right_left_274" type="typeWE" route="right_left" depart="1006" />
    <vehicle id="right_left_275" type="typeWE" route="right_left" depart="1011" />
    <vehicle id="right_left_276" type="typeWE" route="right_left" depart="1012" />
    <vehicle id="down_up_277" type="typeWE" route="down_up" depart="1012" />
    <vehicle id="down_up_278" type="typeWE" route="down_up" depart="1013" />
    <vehicle id="down_up_279" type="typeWE" route="down_up" depart="1019" />
    <vehicle id="up_down_280" type="typeWE" route="up_down" depart="1026" />
    <vehicle id="down_up_281" type="typeWE" route="down_up" depart="1031" />
    <vehicle id="right_left_282" type="typeWE" route="right_left" depart="1032" />
    <vehicle id="down_up_283" type="typeWE" route="down_up" depart="1035" />
    <vehicle id="right_up_284" type="typeWE" route="right_up" depart="1040" />
    <vehicle id="down_up_285" type="typeWE" route="down_up" depart="1041" />
    <vehicle id="up_down_286" type="typeWE" route="up_down" depart="1043" />
    <vehicle id="up_down_287" type="typeWE" route="up_down" depart="1044" />
    <vehicle id="up_down_288" type="typeWE" route="up_down" depart="1055" />
    <vehicle id="up_down_289" type="typeWE" route="up_down" depart="1069" />
    <vehicle id="left_right_290" type="typeWE" route="left_right" depart="1078" />
    <vehicle id="left_right_291" type="typeWE" route="left_right" depart="1088" />
    <vehicle id="up_down_292" type="typeWE" route="up_down" depart="1092" />
    <vehicle id="left_up_293" type="typeWE" route="left_up" depart="1109" />
    <vehicle id="up_down_294" type="typeWE" route="up_down" depart="1115" />
    <vehicle id="down_up_295" type="typeWE" route="down_up" depart="1121" />
    <vehicle id="left_right_296" type="typeWE" route="left_right" depart="1128" />
    <vehicle id="up_down_297" type="typeWE" route="up_down" depart="1128" />
    <vehicle id="down_up_298" type="typeWE" route="down_up" depart="1134" />
    <vehicle id="down_left_299" type="typeWE" route="down_left" depart="1138" />
    <vehicle id="up_down_300" type="typeWE" route="up_down" depart="1139" />
    <vehicle id="up_left_301" type="typeWE" route="up_left" depart="1157" />
    <vehicle id="up_down_302" type="typeWE" route="up_down" depart="1159" />
    <vehicle id="up_down_303" type="typeWE" route="up_down" depart="1160" />
    <vehicle id="left_right_304" type="typeWE" route="left_right" depart="1176" />
    <vehicle id="down_up_305" type="typeWE" route="down_up" depart="1180" />
    <vehicle id="down_up_306" type="typeWE" route="down_up" depart="1183" />
    <vehicle id="left_right_307" type="typeWE" route="left_right" depart="1185" />
    <vehicle id="left_right_308" type="typeWE" route="left_right" depart="1186" />
    <vehicle id="down_up_309" type="typeWE" route="down_up" depart="1196" />
    <vehicle id="down_up_310" type="typeWE" route="down_up" depart="1201" />
    <vehicle id="down_up_311" type="typeWE" route="down_up" depart="1205" />
    <vehicle id="right_left_312" type="typeWE" route="right_left" depart="1210" />
    <vehicle id="down_up_313" type="typeWE" route="down_up" depart="1213" />
    <vehicle id="left_right_314" type="typeWE" route="left_right" depart="1219" />
    <vehicle id="up_down_315" type="typeWE" route="up_down" depart="1222" />
    <vehicle id="left_right_316" type="typeWE" route="left_right" depart="1225" />
    <vehicle id="up_down_317" type="typeWE" route="up_down" depart="1239" />
    <vehicle id="down_right_318" type="typeWE" route="down_right" depart="1239" />
    <vehicle id="down_up_319" type="typeWE" route="down_up" depart="1249" />
    <vehicle id="right_left_320" type="typeWE" route="right_left" depart="1250" />
    <vehicle id="down_up_321" type="typeWE" route="down_up" depart="1251" />
    <vehicle id="right_left_322" type="typeWE" route="right_left" depart="1254" />
    <vehicle id="up_down_323" type="typeWE" route="up_down" depart="1258" />
    <vehicle id="right_left_324" type="typeWE" route="right_left" depart="1264" />
    <vehicle id="down_up_325" type="typeWE" route="down_up" depart="1275" />
    <vehicle id="down_right_326" type="typeWE" route="down_right" depart="1285" />
    <vehicle id="down_left_327" type="typeWE" route="down_left" depart="1287" />
    <vehicle id="left_right_328" type="typeWE" route="left_right" depart="1290" />
    <vehicle id="down_up_329" type="typeWE" route="down_up" depart="1300" />
    <vehicle id="up_down_330" type="typeWE" route="up_down" depart="1307" />
    <vehicle id="down_right_331" type="typeWE" route="down_right" depart="1315" />
    <vehicle id="right_left_332" type="typeWE" route="right_left" depart="1316" />
    <vehicle id="up_down_333" type="typeWE" route="up_down" depart="1321" />
    <vehicle id="down_up_334" type="typeWE" route="down_up" depart="1324" />
    <vehicle id="right_left_335" type="typeWE" route="right_left" depart="1326" />
    <vehicle id="right_left_336" type="typeWE" route="right_left" depart="1333" />
    <vehicle id="right_left_337" type="typeWE" route="right_left" depart="1336" />
    <vehicle id="left_right_338" type="typeWE" route="left_right" depart="1340" />
    <vehicle id="right_left_339" type="typeWE" route="right_left" depart="1345" />
    <vehicle id="down_up_340" type="typeWE" route="down_up" depart="1348" />
    <vehicle id="right_left_341" type="typeWE" route="right_left" depart="1351" />
    <vehicle id="left_right_342" type="typeWE" route="left_right" depart="1352" />
    <vehicle id="down_up_343" type="typeWE" route="down_up" depart="1369" />
    <vehicle id="down_up_344" type="typeWE" route="down_up" depart="1381" />
    <vehicle id="right_down_345" type="typeWE" route="right_down" depart="1382" />
    <vehicle id="down_right_346" type="typeWE" route="down_right" depart="1382" />
    <vehicle id="up_down_347" type="typeWE" route="up_down" depart="1383" />
    <vehicle id="up_down_348" type="typeWE" route="up_down" depart="1386" />
    <vehicle id="down_up_349" type="typeWE" route="down_up" depart="1399" />
    <vehicle id="right_left_350" type="typeWE" route="right_left" depart="1404" />
    <vehicle id="up_down_351" type="typeWE" route="up_down" depart="1404" />
    <vehicle id="right_left_352" type="typeWE" route="right_left" depart="1406" />
    <vehicle id="up_right_353" type="typeWE" route="up_right" depart="1410" />
    <vehicle id="right_left_354" type="typeWE" route="right_left" depart="1415" />
    <vehicle id="down_up_355" type="typeWE" route="down_up" depart="1417" />
    <vehicle id="down_up_356" type="typeWE" route="down_up" depart="1418" />
    <vehicle id="right_left_357" type="typeWE" route="right_left" depart="1424" />
    <vehicle id="up_right_358" type="typeWE" route="up_right" depart="1430" />
    <vehicle id="down_up_359" type="typeWE" route="down_up" depart="1442" />
    <vehicle id="right_down_360" type="typeWE" route="right_down" depart="1457" />
    <vehicle id="down_up_361" type="typeWE" route="down_up" depart="1462" />
    <vehicle id="up_down_362" type="typeWE" route="up_down" depart="1467" />
    <vehicle id="down_up_363" type="typeWE" route="down_up" depart="1469" />
    <vehicle id="up_down_364" type="typeWE" route="up_down" depart="1471" />
    <vehicle id="right_left_365" type="typeWE" route="right_left" depart="1472" />
    <vehicle id="up_down_366" type="typeWE" route="up_down" depart="1472" />
    <vehicle id="down_up_367" type="typeWE" route="down_up" depart="1478" />
    <vehicle id="down_left_368" type="typeWE" route="down_left" depart="1482" />
    <vehicle id="left_right_369" type="typeWE" route="left_right" depart="1483" />
    <vehicle id="right_left_370" type="typeWE" route="right_left" depart="1485" />
    <vehicle id="left_right_371" type="typeWE" route="left_right" depart="1486" />