<?xml version="1.0" encoding="UTF-8"?>

<!-- generated on 2025-06-10 13:40:27 by Eclipse SUMO netedit Version 1.22.0
<neteditConfiguration xmlns:xsi="http://www.w3.org/2001/XMLSchema-instance" xsi:noNamespaceSchemaLocation="http://sumo.dlr.de/xsd/neteditConfiguration.xsd">

    <input>
        <sumo-net-file value="C:\Users\danie\OneDrive\Documentos\Inteligencia Artificial UAB\TUM\TFG\MAI\sumo\map\simple_inclined_3_10m.net.xml"/>
    </input>

    <output>
        <output-file value="C:\Users\danie\OneDrive\Documentos\Inteligencia Artificial UAB\TUM\TFG\MAI\sumo\map\simple_inclined_3_10m.net.xml"/>
    </output>

    <processing>
        <geometry.min-radius.fix.railways value="false"/>
        <geometry.max-grade.fix value="false"/>
        <offset.disable-normalization value="true"/>
        <lefthand value="0"/>
    </processing>

    <junctions>
        <no-turnarounds value="true"/>
        <junctions.corner-detail value="5"/>
        <junctions.limit-turn-speed value="5.50"/>
        <rectangular-lane-cut value="0"/>
    </junctions>

    <pedestrian>
        <walkingareas value="0"/>
    </pedestrian>

</neteditConfiguration>
-->

<net version="1.20" junctionCornerDetail="5" limitTurnSpeed="5.50" xmlns:xsi="http://www.w3.org/2001/XMLSchema-instance" xsi:noNamespaceSchemaLocation="http://sumo.dlr.de/xsd/net_file.xsd">

    <location netOffset="0.00,0.00" convBoundary="-100.00,-62.52,100.00,66.81" origBoundary="-10000000000.00,-10000000000.00,10000000000.00,10000000000.00" projParameter="!"/>

    <edge id=":J0_0" function="internal">
        <lane id=":J0_0_0" index="0" speed="13.89" length="60.67" width="10.00" shape="23.15,24.30 13.22,19.99 -5.17,13.50 -23.75,7.58 -34.28,5.00"/>
    </edge>
    <edge id=":J0_1" function="internal">
        <lane id=":J0_1_0" index="0" speed="13.89" length="67.35" width="10.00" shape="23.15,24.30 -30.51,-16.40"/>
    </edge>
    <edge id=":J0_2" function="internal">
        <lane id=":J0_2_0" index="0" speed="10.80" length="41.51" width="10.00" shape="23.15,24.30 16.57,15.27 16.62,5.69 22.45,-1.91 33.19,-5.00"/>
    </edge>
    <edge id=":J0_3" function="internal">
        <lane id=":J0_3_0" index="0" speed="8.26" length="21.97" width="10.00" shape="33.19,5.00 25.97,5.71 22.92,7.85 24.02,11.41 29.29,16.40"/>
    </edge>
    <edge id=":J0_4" function="internal">
        <lane id=":J0_4_0" index="0" speed="13.89" length="67.47" width="10.00" shape="33.19,5.00 -34.28,5.00"/>
    </edge>
    <edge id=":J0_5" function="internal">
        <lane id=":J0_5_0" index="0" speed="13.89" length="15.79" width="10.00" shape="33.19,5.00 21.69,2.08 17.95,0.87"/>
    </edge>
    <edge id=":J0_12" function="internal">
        <lane id=":J0_12_0" index="0" speed="13.89" length="51.48" width="10.00" shape="17.95,0.87 0.97,-4.58 -19.57,-11.80 -30.51,-16.40"/>
    </edge>
    <edge id=":J0_6" function="internal">
        <lane id=":J0_6_0" index="0" speed="13.89" length="61.00" width="10.00" shape="-24.55,-24.43 -14.54,-20.14 3.95,-13.60 22.62,-7.62 33.19,-5.00"/>
    </edge>
    <edge id=":J0_7" function="internal">
        <lane id=":J0_7_0" index="0" speed="13.89" length="67.57" width="10.00" shape="-24.55,-24.43 29.29,16.40"/>
    </edge>
    <edge id=":J0_8" function="internal">
        <lane id=":J0_8_0" index="0" speed="10.77" length="41.64" width="10.00" shape="-24.55,-24.43 -17.82,-15.51 -17.77,-5.87 -23.55,1.84 -34.28,5.00"/>
    </edge>
    <edge id=":J0_9" function="internal">
        <lane id=":J0_9_0" index="0" speed="8.29" length="22.42" width="10.00" shape="-34.28,-5.00 -26.86,-5.71 -23.77,-7.85 -24.98,-11.41 -30.51,-16.40"/>
    </edge>
    <edge id=":J0_10" function="internal">
        <lane id=":J0_10_0" index="0" speed="13.89" length="67.47" width="10.00" shape="-34.28,-5.00 33.19,-5.00"/>
    </edge>
    <edge id=":J0_11" function="internal">
        <lane id=":J0_11_0" index="0" speed="13.89" length="15.82" width="10.00" shape="-34.28,-5.00 -22.79,-2.09 -19.01,-0.87"/>
    </edge>
    <edge id=":J0_13" function="internal">
        <lane id=":J0_13_0" index="0" speed="13.89" length="51.32" width="10.00" shape="-19.01,-0.87 -2.10,4.55 18.39,11.76 29.29,16.40"/>
    </edge>
    <edge id=":J1_0" function="internal">
        <lane id=":J1_0_0" index="0" speed="13.89" length="0.32" width="10.00" shape="-42.24,-25.09 -42.50,-25.29"/>
    </edge>
    <edge id=":J1_1" function="internal">
        <lane id=":J1_1_0" index="0" speed="13.89" length="0.27" width="10.00" shape="-36.50,-33.29 -36.28,-33.13"/>
    </edge>
    <edge id=":J2_0" function="internal">
        <lane id=":J2_0_0" index="0" speed="13.89" length="0.31" width="10.00" shape="28.34,28.33 28.10,28.14"/>
    </edge>
    <edge id=":J2_1" function="internal">
        <lane id=":J2_1_0" index="0" speed="13.89" length="0.29" width="10.00" shape="34.23,20.24 34.45,20.41"/>
    </edge>
    <edge id=":J3_0" function="internal">
        <lane id=":J3_0_0" index="0" speed="13.89" length="0.10" width="10.00" shape="-40.00,5.00 -40.00,5.00"/>
    </edge>
    <edge id=":J3_1" function="internal">
        <lane id=":J3_1_0" index="0" speed="13.89" length="0.10" width="10.00" shape="-40.00,-5.00 -40.00,-5.00"/>
    </edge>
    <edge id=":J4_0" function="internal">
        <lane id=":J4_0_0" index="0" speed="13.89" length="0.10" width="10.00" shape="40.00,5.00 40.00,5.00"/>
    </edge>
    <edge id=":J4_1" function="internal">
        <lane id=":J4_1_0" index="0" speed="13.89" length="0.10" width="10.00" shape="40.00,-5.00 40.00,-5.00"/>
    </edge>

    <edge id="-E0" from="J1" to="J0" priority="-1">
        <lane id="-E0_0" index="0" speed="13.89" length="14.60" width="10.00" shape="-36.28,-33.13 -24.55,-24.43"/>
    </edge>
    <edge id="-E1" from="J0" to="J2" priority="-1">
        <lane id="-E1_0" index="0" speed="13.89" length="6.26" width="10.00" shape="29.29,16.40 34.23,20.24"/>
    </edge>
    <edge id="-E2" from="J3" to="J0" priority="-1">
        <lane id="-E2_0" index="0" speed="13.89" length="5.72" width="10.00" shape="-40.00,-5.00 -34.28,-5.00"/>
    </edge>
    <edge id="-E3" from="J0" to="J4" priority="-1">
        <lane id="-E3_0" index="0" speed="13.89" length="6.81" width="10.00" shape="33.19,-5.00 40.00,-5.00"/>
    </edge>
    <edge id="-E4" from="J3" to="J5" priority="-1">
        <lane id="-E4_0" index="0" speed="13.89" length="60.00" width="10.00" shape="-40.00,5.00 -100.00,5.00"/>
    </edge>
    <edge id="-E5" from="J2" to="J6" priority="-1">
        <lane id="-E5_0" index="0" speed="13.89" length="69.45" width="10.00" shape="34.45,20.41 89.44,62.85"/>
    </edge>
    <edge id="-E6" from="J4" to="J7" priority="-1">
        <lane id="-E6_0" index="0" speed="13.89" length="60.00" width="10.00" shape="40.00,-5.00 100.00,-5.00"/>
    </edge>
    <edge id="-E7" from="J1" to="J8" priority="-1">
        <lane id="-E7_0" index="0" speed="13.89" length="55.41" width="10.00" shape="-42.50,-25.29 -86.84,-58.52"/>
    </edge>
    <edge id="E0" from="J0" to="J1" priority="-1">
        <lane id="E0_0" index="0" speed="13.89" length="14.60" width="10.00" shape="-30.51,-16.40 -42.24,-25.09"/>
    </edge>
    <edge id="E1" from="J2" to="J0" priority="-1">
        <lane id="E1_0" index="0" speed="13.89" length="6.26" width="10.00" shape="28.10,28.14 23.15,24.30"/>
    </edge>
    <edge id="E2" from="J0" to="J3" priority="-1">
        <lane id="E2_0" index="0" speed="13.89" length="5.72" width="10.00" shape="-34.28,5.00 -40.00,5.00"/>
    </edge>
    <edge id="E3" from="J4" to="J0" priority="-1">
        <lane id="E3_0" index="0" speed="13.89" length="6.81" width="10.00" shape="40.00,5.00 33.19,5.00"/>
    </edge>
    <edge id="E4" from="J5" to="J3" priority="-1">
        <lane id="E4_0" index="0" speed="13.89" length="60.00" width="10.00" shape="-100.00,-5.00 -40.00,-5.00"/>
    </edge>
    <edge id="E5" from="J6" to="J2" priority="-1">
        <lane id="E5_0" index="0" speed="13.89" length="69.45" width="10.00" shape="83.32,70.77 28.34,28.33"/>
    </edge>
    <edge id="E6" from="J7" to="J4" priority="-1">
        <lane id="E6_0" index="0" speed="13.89" length="60.00" width="10.00" shape="100.00,5.00 40.00,5.00"/>
    </edge>
    <edge id="E7" from="J8" to="J1" priority="-1">
        <lane id="E7_0" index="0" speed="13.89" length="55.41" width="10.00" shape="-80.84,-66.52 -36.50,-33.29"/>
    </edge>

    <junction id="J0" type="priority" x="0.00" y="0.00" incLanes="E1_0 E3_0 -E0_0 -E2_0" intLanes=":J0_0_0 :J0_1_0 :J0_2_0 :J0_3_0 :J0_4_0 :J0_12_0 :J0_6_0 :J0_7_0 :J0_8_0 :J0_9_0 :J0_10_0 :J0_13_0" shape="20.09,28.25 32.35,12.45 31.04,11.09 30.98,10.61 31.32,10.27 32.06,10.07 33.19,10.00 33.19,-10.00 21.85,-10.33 12.34,-11.47 3.96,-13.64 -4.01,-17.05 -12.28,-21.91 -21.58,-28.45 -33.49,-12.38 -32.15,-11.06 -32.08,-10.60 -32.41,-10.26 -33.14,-10.07 -34.28,-10.00 -34.28,10.00 -22.94,10.29 -13.46,11.33 -5.12,13.38 2.77,16.71 10.94,21.58">
        <request index="0"  response="000000010000" foes="000100010000" cont="0"/>
        <request index="1"  response="111000110000" foes="111100110000" cont="0"/>
        <request index="2"  response="110011110000" foes="110011110000" cont="0"/>
        <request index="3"  response="000000000000" foes="100010000000" cont="0"/>
        <request index="4"  response="000000000000" foes="100110000111" cont="0"/>
        <request index="5"  response="011000000000" foes="011110000110" cont="1"/>
        <request index="6"  response="010000000000" foes="010000000100" cont="0"/>
        <request index="7"  response="110000111000" foes="110000111100" cont="0"/>
        <request index="8"  response="110000110011" foes="110000110011" cont="0"/>
        <request index="9"  response="000000000000" foes="000000100010" cont="0"/>
        <request index="10" response="000000000000" foes="000111100110" cont="0"/>
        <request index="11" response="000000011000" foes="000110011110" cont="1"/>
    </junction>
    <junction id="J1" type="priority" x="-39.38" y="-29.20" incLanes="E0_0 E7_0" intLanes=":J1_0_0 :J1_1_0" shape="-45.22,-21.08 -33.30,-37.14 -33.50,-37.29 -45.50,-21.29">
        <request index="0" response="00" foes="00" cont="0"/>
        <request index="1" response="00" foes="00" cont="0"/>
    </junction>
    <junction id="J2" type="priority" x="31.28" y="24.28" incLanes="E5_0 -E1_0" intLanes=":J2_0_0 :J2_1_0" shape="25.29,32.29 37.51,16.46 37.29,16.29 25.03,32.09">
        <request index="0" response="00" foes="00" cont="0"/>
        <request index="1" response="00" foes="00" cont="0"/>
    </junction>
    <junction id="J3" type="priority" x="-40.00" y="0.00" incLanes="E2_0 E4_0" intLanes=":J3_0_0 :J3_1_0" shape="-40.00,10.00 -40.00,-10.00 -40.00,10.00">
        <request index="0" response="00" foes="00" cont="0"/>
        <request index="1" response="00" foes="00" cont="0"/>
    </junction>
    <junction id="J4" type="priority" x="40.00" y="0.00" incLanes="E6_0 -E3_0" intLanes=":J4_0_0 :J4_1_0" shape="40.00,10.00 40.00,-10.00 40.00,10.00">
        <request index="0" response="00" foes="00" cont="0"/>
        <request index="1" response="00" foes="00" cont="0"/>
    </junction>
    <junction id="J5" type="dead_end" x="-100.00" y="0.00" incLanes="-E4_0" intLanes="" shape="-100.00,0.00 -100.00,10.00 -100.00,0.00"/>
    <junction id="J6" type="dead_end" x="86.38" y="66.81" incLanes="-E5_0" intLanes="" shape="86.38,66.81 92.49,58.89 86.38,66.81"/>
    <junction id="J7" type="dead_end" x="100.00" y="0.00" incLanes="-E6_0" intLanes="" shape="100.00,0.00 100.00,-10.00 100.00,0.00"/>
    <junction id="J8" type="dead_end" x="-83.84" y="-62.52" incLanes="-E7_0" intLanes="" shape="-83.84,-62.52 -89.84,-54.52 -83.84,-62.52"/>

    <junction id=":J0_12_0" type="internal" x="17.95" y="0.87" incLanes=":J0_5_0 -E2_0" intLanes=":J0_1_0 :J0_2_0 :J0_7_0 :J0_8_0 :J0_9_0 :J0_10_0"/>
    <junction id=":J0_13_0" type="internal" x="-19.01" y="-0.87" incLanes=":J0_11_0 E3_0" intLanes=":J0_1_0 :J0_2_0 :J0_3_0 :J0_4_0 :J0_7_0 :J0_8_0"/>

    <connection from="-E0" to="-E3" fromLane="0" toLane="0" via=":J0_6_0" dir="R" state="m"/>
    <connection from="-E0" to="-E1" fromLane="0" toLane="0" via=":J0_7_0" dir="s" state="m"/>
    <connection from="-E0" to="E2" fromLane="0" toLane="0" contPos="0.00" via=":J0_8_0" dir="l" state="m"/>
    <connection from="-E1" to="-E5" fromLane="0" toLane="0" via=":J2_1_0" dir="s" state="M"/>
    <connection from="-E2" to="E0" fromLane="0" toLane="0" via=":J0_9_0" dir="r" state="M"/>
    <connection from="-E2" to="-E3" fromLane="0" toLane="0" via=":J0_10_0" dir="s" state="M"/>
    <connection from="-E2" to="-E1" fromLane="0" toLane="0" via=":J0_11_0" dir="L" state="m"/>
    <connection from="-E3" to="-E6" fromLane="0" toLane="0" via=":J4_1_0" dir="s" state="M"/>
    <connection from="E0" to="-E7" fromLane="0" toLane="0" via=":J1_0_0" dir="s" state="M"/>
    <connection from="E1" to="E2" fromLane="0" toLane="0" via=":J0_0_0" dir="R" state="m"/>
    <connection from="E1" to="E0" fromLane="0" toLane="0" via=":J0_1_0" dir="s" state="m"/>
    <connection from="E1" to="-E3" fromLane="0" toLane="0" contPos="0.00" via=":J0_2_0" dir="l" state="m"/>
    <connection from="E2" to="-E4" fromLane="0" toLane="0" via=":J3_0_0" dir="s" state="M"/>
    <connection from="E3" to="-E1" fromLane="0" toLane="0" via=":J0_3_0" dir="r" state="M"/>
    <connection from="E3" to="E2" fromLane="0" toLane="0" via=":J0_4_0" dir="s" state="M"/>
    <connection from="E3" to="E0" fromLane="0" toLane="0" via=":J0_5_0" dir="L" state="m"/>
    <connection from="E4" to="-E2" fromLane="0" toLane="0" via=":J3_1_0" dir="s" state="M"/>
    <connection from="E5" to="E1" fromLane="0" toLane="0" via=":J2_0_0" dir="s" state="M"/>
    <connection from="E6" to="E3" fromLane="0" toLane="0" via=":J4_0_0" dir="s" state="M"/>
    <connection from="E7" to="-E0" fromLane="0" toLane="0" via=":J1_1_0" dir="s" state="M"/>

    <connection from=":J0_0" to="E2" fromLane="0" toLane="0" dir="R" state="M"/>
    <connection from=":J0_1" to="E0" fromLane="0" toLane="0" dir="s" state="M"/>
    <connection from=":J0_2" to="-E3" fromLane="0" toLane="0" dir="l" state="M"/>
    <connection from=":J0_3" to="-E1" fromLane="0" toLane="0" dir="r" state="M"/>
    <connection from=":J0_4" to="E2" fromLane="0" toLane="0" dir="s" state="M"/>
    <connection from=":J0_5" to="E0" fromLane="0" toLane="0" via=":J0_12_0" dir="L" state="m"/>
    <connection from=":J0_12" to="E0" fromLane="0" toLane="0" dir="L" state="M"/>
    <connection from=":J0_6" to="-E3" fromLane="0" toLane="0" dir="R" state="M"/>
    <connection from=":J0_7" to="-E1" fromLane="0" toLane="0" dir="s" state="M"/>
    <connection from=":J0_8" to="E2" fromLane="0" toLane="0" dir="l" state="M"/>
    <connection from=":J0_9" to="E0" fromLane="0" toLane="0" dir="r" state="M"/>
    <connection from=":J0_10" to="-E3" fromLane="0" toLane="0" dir="s" state="M"/>
    <connection from=":J0_11" to="-E1" fromLane="0" toLane="0" via=":J0_13_0" dir="L" state="m"/>
    <connection from=":J0_13" to="-E1" fromLane="0" toLane="0" dir="L" state="M"/>
    <connection from=":J1_0" to="-E7" fromLane="0" toLane="0" dir="s" state="M"/>
    <connection from=":J1_1" to="-E0" fromLane="0" toLane="0" dir="s" state="M"/>
    <connection from=":J2_0" to="E1" fromLane="0" toLane="0" dir="s" state="M"/>
    <connection from=":J2_1" to="-E5" fromLane="0" toLane="0" dir="s" state="M"/>
    <connection from=":J3_0" to="-E4" fromLane="0" toLane="0" dir="s" state="M"/>
    <connection from=":J3_1" to="-E2" fromLane="0" toLane="0" dir="s" state="M"/>
    <connection from=":J4_0" to="E3" fromLane="0" toLane="0" dir="s" state="M"/>
    <connection from=":J4_1" to="-E6" fromLane="0" toLane="0" dir="s" state="M"/>

</net>
