<?xml version="1.0" encoding="UTF-8"?>

<!-- generated on 2025-05-22 17:16:44 by Eclipse SUMO netedit Version 1.22.0
<neteditConfiguration xmlns:xsi="http://www.w3.org/2001/XMLSchema-instance" xsi:noNamespaceSchemaLocation="http://sumo.dlr.de/xsd/neteditConfiguration.xsd">

    <input>
        <sumo-net-file value="C:\Users\danie\OneDrive\Documentos\Inteligencia Artificial UAB\TUM\TFG\MTP\sumo_files\map\simple_inclined_2_10m.net.xml"/>
    </input>

    <output>
        <output-file value="C:\Users\danie\OneDrive\Documentos\Inteligencia Artificial UAB\TUM\TFG\MTP\sumo_files\map\simple_inclined_2_10m.net.xml"/>
    </output>

    <processing>
        <geometry.min-radius.fix.railways value="false"/>
        <geometry.max-grade.fix value="false"/>
        <offset.disable-normalization value="true"/>
        <lefthand value="0"/>
    </processing>

    <junctions>
        <no-turnarounds value="true"/>
        <junctions.corner-detail value="5"/>
        <junctions.limit-turn-speed value="5.50"/>
        <rectangular-lane-cut value="0"/>
    </junctions>

    <pedestrian>
        <walkingareas value="0"/>
    </pedestrian>

</neteditConfiguration>
-->

<net version="1.20" junctionCornerDetail="5" limitTurnSpeed="5.50" xmlns:xsi="http://www.w3.org/2001/XMLSchema-instance" xsi:noNamespaceSchemaLocation="http://sumo.dlr.de/xsd/net_file.xsd">

    <location netOffset="0.00,0.00" convBoundary="-100.00,-87.30,101.02,94.35" origBoundary="-10000000000.00,-10000000000.00,10000000000.00,10000000000.00" projParameter="!"/>

    <edge id=":J0_0" function="internal">
        <lane id=":J0_0_0" index="0" speed="8.78" length="15.98" width="10.00" shape="12.86,8.89 8.77,8.42 5.54,9.60 3.17,12.43 1.66,16.91"/>
    </edge>
    <edge id=":J0_1" function="internal">
        <lane id=":J0_1_0" index="0" speed="13.89" length="29.39" width="10.00" shape="12.86,8.89 6.99,7.70 -1.62,6.43 -10.26,5.41 -16.24,5.00"/>
    </edge>
    <edge id=":J0_2" function="internal">
        <lane id=":J0_2_0" index="0" speed="13.44" length="30.56" width="10.00" shape="12.86,8.89 6.64,5.46 0.81,-0.43 -3.54,-7.41 -5.33,-14.11"/>
    </edge>
    <edge id=":J0_3" function="internal">
        <lane id=":J0_3_0" index="0" speed="10.80" length="18.86" width="10.00" shape="4.69,-14.35 5.46,-9.54 7.54,-5.66 10.92,-2.73 15.62,-0.73"/>
    </edge>
    <edge id=":J0_4" function="internal">
        <lane id=":J0_4_0" index="0" speed="13.89" length="31.42" width="10.00" shape="4.69,-14.35 4.40,-8.04 3.59,1.32 2.57,10.66 1.66,16.91"/>
    </edge>
    <edge id=":J0_5" function="internal">
        <lane id=":J0_5_0" index="0" speed="11.84" length="30.59" width="10.00" shape="4.69,-14.35 2.75,-7.58 -2.37,-1.34 -9.19,3.23 -16.24,5.00"/>
    </edge>
    <edge id=":J0_6" function="internal">
        <lane id=":J0_6_0" index="0" speed="8.99" length="16.25" width="10.00" shape="-16.24,-5.00 -11.39,-5.57 -7.95,-7.28 -5.93,-10.13 -5.33,-14.11"/>
    </edge>
    <edge id=":J0_7" function="internal">
        <lane id=":J0_7_0" index="0" speed="13.89" length="32.17" width="10.00" shape="-16.24,-5.00 -9.83,-4.53 -0.24,-3.38 9.32,-1.97 15.62,-0.73"/>
    </edge>
    <edge id=":J0_8" function="internal">
        <lane id=":J0_8_0" index="0" speed="11.22" length="30.78" width="10.00" shape="-16.24,-5.00 -9.44,-2.80 -3.29,2.69 0.86,9.81 1.66,16.91"/>
    </edge>
    <edge id=":J0_9" function="internal">
        <lane id=":J0_9_0" index="0" speed="8.35" length="15.39" width="10.00" shape="-8.14,14.92 -7.89,10.58 -9.16,7.48 -11.94,5.62 -16.24,5.00"/>
    </edge>
    <edge id=":J0_10" function="internal">
        <lane id=":J0_10_0" index="0" speed="13.89" length="29.19" width="10.00" shape="-8.14,14.92 -7.26,9.02 -6.32,0.44 -5.58,-8.16 -5.33,-14.11"/>
    </edge>
    <edge id=":J0_11" function="internal">
        <lane id=":J0_11_0" index="0" speed="11.63" length="30.66" width="10.00" shape="-8.14,14.92 -4.88,8.45 1.20,2.91 8.55,-0.54 15.62,-0.73"/>
    </edge>
    <edge id=":J1_0" function="internal">
        <lane id=":J1_0_0" index="0" speed="13.89" length="0.32" width="10.00" shape="-5.90,-38.94 -5.91,-39.26"/>
    </edge>
    <edge id=":J1_1" function="internal">
        <lane id=":J1_1_0" index="0" speed="13.89" length="0.28" width="10.00" shape="4.09,-39.48 4.09,-39.20"/>
    </edge>
    <edge id=":J2_0" function="internal">
        <lane id=":J2_0_0" index="0" speed="13.89" length="0.35" width="10.00" shape="-3.72,43.34 -3.79,43.68"/>
    </edge>
    <edge id=":J2_1" function="internal">
        <lane id=":J2_1_0" index="0" speed="13.89" length="0.24" width="10.00" shape="-13.57,41.58 -13.52,41.35"/>
    </edge>
    <edge id=":J3_0" function="internal">
        <lane id=":J3_0_0" index="0" speed="13.89" length="0.10" width="10.00" shape="-40.00,5.00 -40.00,5.00"/>
    </edge>
    <edge id=":J3_1" function="internal">
        <lane id=":J3_1_0" index="0" speed="13.89" length="0.10" width="10.00" shape="-40.00,-5.00 -40.00,-5.00"/>
    </edge>
    <edge id=":J4_0" function="internal">
        <lane id=":J4_0_0" index="0" speed="13.89" length="0.29" width="10.00" shape="38.47,16.23 38.19,16.15"/>
    </edge>
    <edge id=":J4_1" function="internal">
        <lane id=":J4_1_0" index="0" speed="13.89" length="0.31" width="10.00" shape="40.94,6.53 41.24,6.62"/>
    </edge>

    <edge id="-E0" from="J1" to="J0" priority="-1" shape="-0.91,-39.22 -0.55,-25.11 0.00,0.00">
        <lane id="-E0_0" index="0" speed="13.89" length="24.86" width="10.00" shape="4.09,-39.20 4.45,-25.23 4.69,-14.35"/>
    </edge>
    <edge id="-E1" from="J0" to="J2" priority="-1">
        <lane id="-E1_0" index="0" speed="13.89" length="26.97" width="10.00" shape="1.66,16.91 -3.72,43.34"/>
    </edge>
    <edge id="-E2" from="J3" to="J0" priority="-1">
        <lane id="-E2_0" index="0" speed="13.89" length="23.76" width="10.00" shape="-40.00,-5.00 -16.24,-5.00"/>
    </edge>
    <edge id="-E3" from="J0" to="J4" priority="-1">
        <lane id="-E3_0" index="0" speed="13.89" length="26.34" width="10.00" shape="15.62,-0.73 40.94,6.53"/>
    </edge>
    <edge id="-E4" from="J3" to="J5" priority="-1">
        <lane id="-E4_0" index="0" speed="13.89" length="60.00" width="10.00" shape="-40.00,5.00 -100.00,5.00"/>
    </edge>
    <edge id="-E5" from="J2" to="J6" priority="-1">
        <lane id="-E5_0" index="0" speed="13.89" length="52.90" width="10.00" shape="-3.79,43.68 -14.90,95.40"/>
    </edge>
    <edge id="-E6" from="J4" to="J7" priority="-1">
        <lane id="-E6_0" index="0" speed="13.89" length="63.65" width="10.00" shape="41.24,6.62 102.40,24.24"/>
    </edge>
    <edge id="-E7" from="J1" to="J8" priority="-1">
        <lane id="-E7_0" index="0" speed="13.89" length="47.94" width="10.00" shape="-5.91,-39.26 -6.95,-87.19"/>
    </edge>
    <edge id="E0" from="J0" to="J1" priority="-1">
        <lane id="E0_0" index="0" speed="13.89" length="24.83" width="10.00" shape="-5.33,-14.11 -5.90,-38.94"/>
    </edge>
    <edge id="E1" from="J2" to="J0" priority="-1">
        <lane id="E1_0" index="0" speed="13.89" length="26.97" width="10.00" shape="-13.52,41.35 -8.14,14.92"/>
    </edge>
    <edge id="E2" from="J0" to="J3" priority="-1">
        <lane id="E2_0" index="0" speed="13.89" length="23.76" width="10.00" shape="-16.24,5.00 -40.00,5.00"/>
    </edge>
    <edge id="E3" from="J4" to="J0" priority="-1">
        <lane id="E3_0" index="0" speed="13.89" length="26.34" width="10.00" shape="38.19,16.15 12.86,8.89"/>
    </edge>
    <edge id="E4" from="J5" to="J3" priority="-1">
        <lane id="E4_0" index="0" speed="13.89" length="60.00" width="10.00" shape="-100.00,-5.00 -40.00,-5.00"/>
    </edge>
    <edge id="E5" from="J6" to="J2" priority="-1">
        <lane id="E5_0" index="0" speed="13.89" length="52.90" width="10.00" shape="-24.68,93.30 -13.57,41.58"/>
    </edge>
    <edge id="E6" from="J7" to="J4" priority="-1">
        <lane id="E6_0" index="0" speed="13.89" length="63.65" width="10.00" shape="99.64,33.84 38.47,16.23"/>
    </edge>
    <edge id="E7" from="J8" to="J1" priority="-1">
        <lane id="E7_0" index="0" speed="13.89" length="47.94" width="10.00" shape="3.05,-87.41 4.09,-39.48"/>
    </edge>

    <junction id="J0" type="priority" x="0.00" y="0.00" incLanes="E3_0 -E0_0 -E2_0 E1_0" intLanes=":J0_0_0 :J0_1_0 :J0_2_0 :J0_3_0 :J0_4_0 :J0_5_0 :J0_6_0 :J0_7_0 :J0_8_0 :J0_9_0 :J0_10_0 :J0_11_0" shape="11.49,13.69 17.00,-5.53 14.80,-6.35 13.00,-7.44 11.59,-8.79 10.56,-10.41 9.93,-12.30 9.69,-14.46 -10.33,-14.00 -10.94,-11.78 -11.76,-11.00 -12.91,-10.44 -14.41,-10.11 -16.24,-10.00 -16.24,10.00 -14.11,10.44 -13.44,10.98 -13.04,11.74 -12.91,12.72 -13.04,13.92 6.56,17.91 7.59,15.08 8.33,14.20 9.23,13.67 10.28,13.51">
        <request index="0"  response="000000010000" foes="000100010000" cont="0"/>
        <request index="1"  response="111000110000" foes="111100110000" cont="0"/>
        <request index="2"  response="110011110000" foes="110111110000" cont="0"/>
        <request index="3"  response="000000000000" foes="100010000000" cont="0"/>
        <request index="4"  response="000000000000" foes="100110000111" cont="0"/>
        <request index="5"  response="111000000000" foes="111110000110" cont="0"/>
        <request index="6"  response="010000000000" foes="010000000100" cont="0"/>
        <request index="7"  response="110000111000" foes="110000111100" cont="0"/>
        <request index="8"  response="110000110111" foes="110000110111" cont="0"/>
        <request index="9"  response="000000000000" foes="000000100010" cont="0"/>
        <request index="10" response="000000000000" foes="000111100110" cont="0"/>
        <request index="11" response="000000011000" foes="000110111110" cont="0"/>
    </junction>
    <junction id="J1" type="priority" x="-0.91" y="-39.22" incLanes="E0_0 E7_0" intLanes=":J1_0_0 :J1_1_0" shape="-10.90,-38.82 9.09,-39.33 9.08,-39.59 -10.91,-39.15">
        <request index="0" response="00" foes="00" cont="0"/>
        <request index="1" response="00" foes="00" cont="0"/>
    </junction>
    <junction id="J2" type="priority" x="-8.65" y="42.49" incLanes="-E1_0 E5_0" intLanes=":J2_0_0 :J2_1_0" shape="1.18,44.34 -18.42,40.35 -18.46,40.53 1.10,44.73">
        <request index="0" response="00" foes="00" cont="0"/>
        <request index="1" response="00" foes="00" cont="0"/>
    </junction>
    <junction id="J3" type="priority" x="-40.00" y="0.00" incLanes="E2_0 E4_0" intLanes=":J3_0_0 :J3_1_0" shape="-40.00,10.00 -40.00,-10.00 -40.00,10.00">
        <request index="0" response="00" foes="00" cont="0"/>
        <request index="1" response="00" foes="00" cont="0"/>
    </junction>
    <junction id="J4" type="priority" x="39.71" y="11.38" incLanes="E6_0 -E3_0" intLanes=":J4_0_0 :J4_1_0" shape="37.09,21.03 42.62,1.81 42.32,1.73 36.81,20.95">
        <request index="0" response="00" foes="00" cont="0"/>
        <request index="1" response="00" foes="00" cont="0"/>
    </junction>
    <junction id="J5" type="dead_end" x="-100.00" y="0.00" incLanes="-E4_0" intLanes="" shape="-100.00,0.00 -100.00,10.00 -100.00,0.00"/>
    <junction id="J6" type="dead_end" x="-19.79" y="94.35" incLanes="-E5_0" intLanes="" shape="-19.79,94.35 -10.01,96.45 -19.79,94.35"/>
    <junction id="J7" type="dead_end" x="101.02" y="29.04" incLanes="-E6_0" intLanes="" shape="101.02,29.04 103.79,19.43 101.02,29.04"/>
    <junction id="J8" type="dead_end" x="-1.95" y="-87.30" incLanes="-E7_0" intLanes="" shape="-1.95,-87.30 -11.95,-87.08 -1.95,-87.30"/>

    <connection from="-E0" to="-E3" fromLane="0" toLane="0" via=":J0_3_0" dir="r" state="M"/>
    <connection from="-E0" to="-E1" fromLane="0" toLane="0" via=":J0_4_0" dir="s" state="M"/>
    <connection from="-E0" to="E2" fromLane="0" toLane="0" contPos="0.00" via=":J0_5_0" dir="l" state="m"/>
    <connection from="-E1" to="-E5" fromLane="0" toLane="0" via=":J2_0_0" dir="s" state="M"/>
    <connection from="-E2" to="E0" fromLane="0" toLane="0" via=":J0_6_0" dir="r" state="m"/>
    <connection from="-E2" to="-E3" fromLane="0" toLane="0" via=":J0_7_0" dir="s" state="m"/>
    <connection from="-E2" to="-E1" fromLane="0" toLane="0" via=":J0_8_0" dir="l" state="m"/>
    <connection from="-E3" to="-E6" fromLane="0" toLane="0" via=":J4_1_0" dir="s" state="M"/>
    <connection from="E0" to="-E7" fromLane="0" toLane="0" via=":J1_0_0" dir="s" state="M"/>
    <connection from="E1" to="E2" fromLane="0" toLane="0" via=":J0_9_0" dir="r" state="M"/>
    <connection from="E1" to="E0" fromLane="0" toLane="0" via=":J0_10_0" dir="s" state="M"/>
    <connection from="E1" to="-E3" fromLane="0" toLane="0" contPos="0.00" via=":J0_11_0" dir="l" state="m"/>
    <connection from="E2" to="-E4" fromLane="0" toLane="0" via=":J3_0_0" dir="s" state="M"/>
    <connection from="E3" to="-E1" fromLane="0" toLane="0" via=":J0_0_0" dir="r" state="m"/>
    <connection from="E3" to="E2" fromLane="0" toLane="0" via=":J0_1_0" dir="s" state="m"/>
    <connection from="E3" to="E0" fromLane="0" toLane="0" via=":J0_2_0" dir="l" state="m"/>
    <connection from="E4" to="-E2" fromLane="0" toLane="0" via=":J3_1_0" dir="s" state="M"/>
    <connection from="E5" to="E1" fromLane="0" toLane="0" via=":J2_1_0" dir="s" state="M"/>
    <connection from="E6" to="E3" fromLane="0" toLane="0" via=":J4_0_0" dir="s" state="M"/>
    <connection from="E7" to="-E0" fromLane="0" toLane="0" via=":J1_1_0" dir="s" state="M"/>

    <connection from=":J0_0" to="-E1" fromLane="0" toLane="0" dir="r" state="M"/>
    <connection from=":J0_1" to="E2" fromLane="0" toLane="0" dir="s" state="M"/>
    <connection from=":J0_2" to="E0" fromLane="0" toLane="0" dir="l" state="M"/>
    <connection from=":J0_3" to="-E3" fromLane="0" toLane="0" dir="r" state="M"/>
    <connection from=":J0_4" to="-E1" fromLane="0" toLane="0" dir="s" state="M"/>
    <connection from=":J0_5" to="E2" fromLane="0" toLane="0" dir="l" state="M"/>
    <connection from=":J0_6" to="E0" fromLane="0" toLane="0" dir="r" state="M"/>
    <connection from=":J0_7" to="-E3" fromLane="0" toLane="0" dir="s" state="M"/>
    <connection from=":J0_8" to="-E1" fromLane="0" toLane="0" dir="l" state="M"/>
    <connection from=":J0_9" to="E2" fromLane="0" toLane="0" dir="r" state="M"/>
    <connection from=":J0_10" to="E0" fromLane="0" toLane="0" dir="s" state="M"/>
    <connection from=":J0_11" to="-E3" fromLane="0" toLane="0" dir="l" state="M"/>
    <connection from=":J1_0" to="-E7" fromLane="0" toLane="0" dir="s" state="M"/>
    <connection from=":J1_1" to="-E0" fromLane="0" toLane="0" dir="s" state="M"/>
    <connection from=":J2_0" to="-E5" fromLane="0" toLane="0" dir="s" state="M"/>
    <connection from=":J2_1" to="E1" fromLane="0" toLane="0" dir="s" state="M"/>
    <connection from=":J3_0" to="-E4" fromLane="0" toLane="0" dir="s" state="M"/>
    <connection from=":J3_1" to="-E2" fromLane="0" toLane="0" dir="s" state="M"/>
    <connection from=":J4_0" to="E3" fromLane="0" toLane="0" dir="s" state="M"/>
    <connection from=":J4_1" to="-E6" fromLane="0" toLane="0" dir="s" state="M"/>

</net>
