<?xml version="1.0" encoding="UTF-8"?>

<!-- generated on 2025-07-11 12:55:11 by Eclipse SUMO netedit Version 1.22.0
<neteditConfiguration xmlns:xsi="http://www.w3.org/2001/XMLSchema-instance" xsi:noNamespaceSchemaLocation="http://sumo.dlr.de/xsd/neteditConfiguration.xsd">

    <input>
        <sumo-net-file value="C:\Users\danie\OneDrive\Documentos\Inteligencia Artificial UAB\TUM\TFG\MAI\sumo\map\simple_inclined_4_10m.net.xml"/>
    </input>

    <output>
        <output-file value="C:\Users\danie\OneDrive\Documentos\Inteligencia Artificial UAB\TUM\TFG\MAI\sumo\map\simple_inclined_4_10m.net.xml"/>
    </output>

    <processing>
        <geometry.min-radius.fix.railways value="false"/>
        <geometry.max-grade.fix value="false"/>
        <offset.disable-normalization value="true"/>
        <lefthand value="0"/>
    </processing>

    <junctions>
        <no-turnarounds value="true"/>
        <junctions.corner-detail value="5"/>
        <junctions.limit-turn-speed value="5.50"/>
        <rectangular-lane-cut value="0"/>
    </junctions>

    <pedestrian>
        <walkingareas value="0"/>
    </pedestrian>

</neteditConfiguration>
-->

<net version="1.20" junctionCornerDetail="5" limitTurnSpeed="5.50" xmlns:xsi="http://www.w3.org/2001/XMLSchema-instance" xsi:noNamespaceSchemaLocation="http://sumo.dlr.de/xsd/net_file.xsd">

    <location netOffset="0.00,0.00" convBoundary="-100.00,-70.29,100.00,100.00" origBoundary="-10000000000.00,-10000000000.00,10000000000.00,10000000000.00" projParameter="!"/>

    <edge id=":J0_0" function="internal">
        <lane id=":J0_0_0" index="0" speed="8.65" length="14.51" width="10.00" shape="-5.00,14.00 -5.56,10.06 -7.25,7.25 -10.06,5.56 -14.00,5.00"/>
    </edge>
    <edge id=":J0_1" function="internal">
        <lane id=":J0_1_0" index="0" speed="13.89" length="46.13" width="10.00" shape="-5.00,14.00 -3.48,5.54 1.08,-3.59 8.67,-13.39 19.31,-23.87"/>
    </edge>
    <edge id=":J0_2" function="internal">
        <lane id=":J0_2_0" index="0" speed="13.89" length="44.56" width="10.00" shape="-5.00,14.00 -2.79,5.69 3.82,-0.25 14.85,-3.81 30.29,-5.00"/>
    </edge>
    <edge id=":J0_3" function="internal">
        <lane id=":J0_3_0" index="0" speed="11.63" length="28.91" width="10.00" shape="30.29,5.00 19.22,5.56 11.32,7.25 6.58,10.06 5.00,14.00"/>
    </edge>
    <edge id=":J0_4" function="internal">
        <lane id=":J0_4_0" index="0" speed="13.89" length="44.29" width="10.00" shape="30.29,5.00 -14.00,5.00"/>
    </edge>
    <edge id=":J0_5" function="internal">
        <lane id=":J0_5_0" index="0" speed="10.89" length="12.54" width="10.00" shape="30.29,5.00 19.53,2.09 18.64,1.02"/>
    </edge>
    <edge id=":J0_12" function="internal">
        <lane id=":J0_12_0" index="0" speed="10.89" length="28.54" width="10.00" shape="18.64,1.02 13.56,-5.16 13.20,-14.54 19.31,-23.87"/>
    </edge>
    <edge id=":J0_6" function="internal">
        <lane id=":J0_6_0" index="0" speed="8.17" length="20.77" width="10.00" shape="25.95,-16.39 21.42,-11.41 20.63,-7.85 23.59,-5.71 30.29,-5.00"/>
    </edge>
    <edge id=":J0_7" function="internal">
        <lane id=":J0_7_0" index="0" speed="13.89" length="37.75" width="10.00" shape="25.95,-16.39 16.79,-7.51 10.24,0.52 6.31,7.69 5.00,14.00"/>
    </edge>
    <edge id=":J0_8" function="internal">
        <lane id=":J0_8_0" index="0" speed="13.89" length="45.45" width="10.00" shape="25.95,-16.39 18.84,-11.65 6.45,-4.45 -6.17,2.12 -14.00,5.00"/>
    </edge>
    <edge id=":J0_9" function="internal">
        <lane id=":J0_9_0" index="0" speed="13.89" length="38.43" width="10.00" shape="-14.00,-5.00 -7.21,-7.48 3.13,-13.19 13.23,-19.52 19.31,-23.87"/>
    </edge>
    <edge id=":J0_10" function="internal">
        <lane id=":J0_10_0" index="0" speed="13.89" length="44.29" width="10.00" shape="-14.00,-5.00 30.29,-5.00"/>
    </edge>
    <edge id=":J0_11" function="internal">
        <lane id=":J0_11_0" index="0" speed="11.94" length="13.94" width="10.00" shape="-14.00,-5.00 -5.69,-3.81 -0.93,-0.96"/>
    </edge>
    <edge id=":J0_13" function="internal">
        <lane id=":J0_13_0" index="0" speed="11.94" length="16.70" width="10.00" shape="-0.93,-0.96 0.25,-0.25 3.81,5.69 5.00,14.00"/>
    </edge>
    <edge id=":J1_0" function="internal">
        <lane id=":J1_0_0" index="0" speed="13.89" length="0.29" width="10.00" shape="39.74,-28.66 39.52,-28.46"/>
    </edge>
    <edge id=":J1_1" function="internal">
        <lane id=":J1_1_0" index="0" speed="13.89" length="0.31" width="10.00" shape="32.87,-35.94 33.11,-36.14"/>
    </edge>
    <edge id=":J2_0" function="internal">
        <lane id=":J2_0_0" index="0" speed="13.89" length="0.10" width="10.00" shape="-5.00,40.00 -5.00,40.00"/>
    </edge>
    <edge id=":J2_1" function="internal">
        <lane id=":J2_1_0" index="0" speed="13.89" length="0.10" width="10.00" shape="5.00,40.00 5.00,40.00"/>
    </edge>
    <edge id=":J3_0" function="internal">
        <lane id=":J3_0_0" index="0" speed="13.89" length="0.10" width="10.00" shape="-40.00,5.00 -40.00,5.00"/>
    </edge>
    <edge id=":J3_1" function="internal">
        <lane id=":J3_1_0" index="0" speed="13.89" length="0.10" width="10.00" shape="-40.00,-5.00 -40.00,-5.00"/>
    </edge>
    <edge id=":J4_0" function="internal">
        <lane id=":J4_0_0" index="0" speed="13.89" length="0.10" width="10.00" shape="40.00,5.00 40.00,5.00"/>
    </edge>
    <edge id=":J4_1" function="internal">
        <lane id=":J4_1_0" index="0" speed="13.89" length="0.10" width="10.00" shape="40.00,-5.00 40.00,-5.00"/>
    </edge>

    <edge id="-E0" from="J1" to="J0" priority="-1">
        <lane id="-E0_0" index="0" speed="13.89" length="18.16" width="10.00" shape="39.52,-28.46 25.95,-16.39"/>
    </edge>
    <edge id="-E1" from="J0" to="J2" priority="-1">
        <lane id="-E1_0" index="0" speed="13.89" length="26.00" width="10.00" shape="5.00,14.00 5.00,40.00"/>
    </edge>
    <edge id="-E2" from="J3" to="J0" priority="-1">
        <lane id="-E2_0" index="0" speed="13.89" length="26.00" width="10.00" shape="-40.00,-5.00 -14.00,-5.00"/>
    </edge>
    <edge id="-E3" from="J0" to="J4" priority="-1">
        <lane id="-E3_0" index="0" speed="13.89" length="9.71" width="10.00" shape="30.29,-5.00 40.00,-5.00"/>
    </edge>
    <edge id="-E4" from="J3" to="J5" priority="-1">
        <lane id="-E4_0" index="0" speed="13.89" length="60.00" width="10.00" shape="-40.00,5.00 -100.00,5.00"/>
    </edge>
    <edge id="-E5" from="J2" to="J6" priority="-1">
        <lane id="-E5_0" index="0" speed="13.89" length="60.00" width="10.00" shape="5.00,40.00 5.00,100.00"/>
    </edge>
    <edge id="-E6" from="J4" to="J7" priority="-1">
        <lane id="-E6_0" index="0" speed="13.89" length="60.00" width="10.00" shape="40.00,-5.00 100.00,-5.00"/>
    </edge>
    <edge id="-E7" from="J1" to="J8" priority="-1">
        <lane id="-E7_0" index="0" speed="13.89" length="57.16" width="10.00" shape="33.11,-36.14 75.91,-74.03"/>
    </edge>
    <edge id="E0" from="J0" to="J1" priority="-1">
        <lane id="E0_0" index="0" speed="13.89" length="18.16" width="10.00" shape="19.31,-23.87 32.87,-35.94"/>
    </edge>
    <edge id="E1" from="J2" to="J0" priority="-1">
        <lane id="E1_0" index="0" speed="13.89" length="26.00" width="10.00" shape="-5.00,40.00 -5.00,14.00"/>
    </edge>
    <edge id="E2" from="J0" to="J3" priority="-1">
        <lane id="E2_0" index="0" speed="13.89" length="26.00" width="10.00" shape="-14.00,5.00 -40.00,5.00"/>
    </edge>
    <edge id="E3" from="J4" to="J0" priority="-1">
        <lane id="E3_0" index="0" speed="13.89" length="9.71" width="10.00" shape="40.00,5.00 30.29,5.00"/>
    </edge>
    <edge id="E4" from="J5" to="J3" priority="-1">
        <lane id="E4_0" index="0" speed="13.89" length="60.00" width="10.00" shape="-100.00,-5.00 -40.00,-5.00"/>
    </edge>
    <edge id="E5" from="J6" to="J2" priority="-1">
        <lane id="E5_0" index="0" speed="13.89" length="60.00" width="10.00" shape="-5.00,100.00 -5.00,40.00"/>
    </edge>
    <edge id="E6" from="J7" to="J4" priority="-1">
        <lane id="E6_0" index="0" speed="13.89" length="60.00" width="10.00" shape="100.00,5.00 40.00,5.00"/>
    </edge>
    <edge id="E7" from="J8" to="J1" priority="-1">
        <lane id="E7_0" index="0" speed="13.89" length="57.16" width="10.00" shape="82.53,-66.55 39.74,-28.66"/>
    </edge>

    <junction id="J0" type="priority" x="0.00" y="0.00" incLanes="E1_0 E3_0 -E0_0 -E2_0" intLanes=":J0_0_0 :J0_1_0 :J0_2_0 :J0_3_0 :J0_4_0 :J0_12_0 :J0_6_0 :J0_7_0 :J0_8_0 :J0_9_0 :J0_10_0 :J0_13_0" shape="-10.00,14.00 10.00,14.00 12.25,11.78 15.07,11.00 19.02,10.44 24.09,10.11 30.29,10.00 30.29,-10.00 28.40,-10.30 28.03,-10.66 28.06,-11.18 28.47,-11.85 29.28,-12.66 15.98,-27.60 10.46,-22.29 6.30,-17.90 2.64,-14.47 -1.39,-12.00 -6.64,-10.50 -14.00,-10.00 -14.00,10.00 -11.78,10.44 -11.00,11.00 -10.44,11.78 -10.11,12.78">
        <request index="0"  response="000100010000" foes="000100010000" cont="0"/>
        <request index="1"  response="111100110000" foes="111100110000" cont="0"/>
        <request index="2"  response="110011110000" foes="110011110000" cont="0"/>
        <request index="3"  response="000000000000" foes="100010000000" cont="0"/>
        <request index="4"  response="000000000000" foes="100110000111" cont="0"/>
        <request index="5"  response="011000000000" foes="011110000110" cont="1"/>
        <request index="6"  response="010000000000" foes="010000000100" cont="0"/>
        <request index="7"  response="110000111000" foes="110000111100" cont="0"/>
        <request index="8"  response="110000110000" foes="110000110011" cont="0"/>
        <request index="9"  response="000000000000" foes="000000100010" cont="0"/>
        <request index="10" response="000000000000" foes="000111100110" cont="0"/>
        <request index="11" response="000000011000" foes="000110011110" cont="1"/>
    </junction>
    <junction id="J1" type="priority" x="36.31" y="-32.30" incLanes="E7_0 E0_0" intLanes=":J1_0_0 :J1_1_0" shape="43.05,-24.91 29.79,-39.89 29.55,-39.67 42.84,-24.73">
        <request index="0" response="00" foes="00" cont="0"/>
        <request index="1" response="00" foes="00" cont="0"/>
    </junction>
    <junction id="J2" type="priority" x="0.00" y="40.00" incLanes="E5_0 -E1_0" intLanes=":J2_0_0 :J2_1_0" shape="-10.00,40.00 10.00,40.00 -10.00,40.00">
        <request index="0" response="00" foes="00" cont="0"/>
        <request index="1" response="00" foes="00" cont="0"/>
    </junction>
    <junction id="J3" type="priority" x="-40.00" y="0.00" incLanes="E2_0 E4_0" intLanes=":J3_0_0 :J3_1_0" shape="-40.00,10.00 -40.00,-10.00 -40.00,10.00">
        <request index="0" response="00" foes="00" cont="0"/>
        <request index="1" response="00" foes="00" cont="0"/>
    </junction>
    <junction id="J4" type="priority" x="40.00" y="0.00" incLanes="E6_0 -E3_0" intLanes=":J4_0_0 :J4_1_0" shape="40.00,10.00 40.00,-10.00 40.00,10.00">
        <request index="0" response="00" foes="00" cont="0"/>
        <request index="1" response="00" foes="00" cont="0"/>
    </junction>
    <junction id="J5" type="dead_end" x="-100.00" y="0.00" incLanes="-E4_0" intLanes="" shape="-100.00,0.00 -100.00,10.00 -100.00,0.00"/>
    <junction id="J6" type="dead_end" x="0.00" y="100.00" incLanes="-E5_0" intLanes="" shape="0.00,100.00 10.00,100.00 0.00,100.00"/>
    <junction id="J7" type="dead_end" x="100.00" y="0.00" incLanes="-E6_0" intLanes="" shape="100.00,0.00 100.00,-10.00 100.00,0.00"/>
    <junction id="J8" type="dead_end" x="79.22" y="-70.29" incLanes="-E7_0" intLanes="" shape="79.22,-70.29 72.59,-77.78 79.22,-70.29"/>

    <junction id=":J0_12_0" type="internal" x="18.64" y="1.02" incLanes=":J0_5_0 -E2_0" intLanes=":J0_1_0 :J0_2_0 :J0_7_0 :J0_8_0 :J0_9_0 :J0_10_0"/>
    <junction id=":J0_13_0" type="internal" x="-0.93" y="-0.96" incLanes=":J0_11_0 E3_0" intLanes=":J0_1_0 :J0_2_0 :J0_3_0 :J0_4_0 :J0_7_0 :J0_8_0"/>

    <connection from="-E0" to="-E3" fromLane="0" toLane="0" via=":J0_6_0" dir="r" state="m"/>
    <connection from="-E0" to="-E1" fromLane="0" toLane="0" via=":J0_7_0" dir="R" state="m"/>
    <connection from="-E0" to="E2" fromLane="0" toLane="0" contPos="0.00" via=":J0_8_0" dir="s" state="m"/>
    <connection from="-E1" to="-E5" fromLane="0" toLane="0" via=":J2_1_0" dir="s" state="M"/>
    <connection from="-E2" to="E0" fromLane="0" toLane="0" via=":J0_9_0" dir="R" state="M"/>
    <connection from="-E2" to="-E3" fromLane="0" toLane="0" via=":J0_10_0" dir="s" state="M"/>
    <connection from="-E2" to="-E1" fromLane="0" toLane="0" via=":J0_11_0" dir="l" state="m"/>
    <connection from="-E3" to="-E6" fromLane="0" toLane="0" via=":J4_1_0" dir="s" state="M"/>
    <connection from="E0" to="-E7" fromLane="0" toLane="0" via=":J1_1_0" dir="s" state="M"/>
    <connection from="E1" to="E2" fromLane="0" toLane="0" via=":J0_0_0" dir="r" state="m"/>
    <connection from="E1" to="E0" fromLane="0" toLane="0" via=":J0_1_0" dir="L" state="m"/>
    <connection from="E1" to="-E3" fromLane="0" toLane="0" contPos="0.00" via=":J0_2_0" dir="l" state="m"/>
    <connection from="E2" to="-E4" fromLane="0" toLane="0" via=":J3_0_0" dir="s" state="M"/>
    <connection from="E3" to="-E1" fromLane="0" toLane="0" via=":J0_3_0" dir="r" state="M"/>
    <connection from="E3" to="E2" fromLane="0" toLane="0" via=":J0_4_0" dir="s" state="M"/>
    <connection from="E3" to="E0" fromLane="0" toLane="0" via=":J0_5_0" dir="l" state="m"/>
    <connection from="E4" to="-E2" fromLane="0" toLane="0" via=":J3_1_0" dir="s" state="M"/>
    <connection from="E5" to="E1" fromLane="0" toLane="0" via=":J2_0_0" dir="s" state="M"/>
    <connection from="E6" to="E3" fromLane="0" toLane="0" via=":J4_0_0" dir="s" state="M"/>
    <connection from="E7" to="-E0" fromLane="0" toLane="0" via=":J1_0_0" dir="s" state="M"/>

    <connection from=":J0_0" to="E2" fromLane="0" toLane="0" dir="r" state="M"/>
    <connection from=":J0_1" to="E0" fromLane="0" toLane="0" dir="L" state="M"/>
    <connection from=":J0_2" to="-E3" fromLane="0" toLane="0" dir="l" state="M"/>
    <connection from=":J0_3" to="-E1" fromLane="0" toLane="0" dir="r" state="M"/>
    <connection from=":J0_4" to="E2" fromLane="0" toLane="0" dir="s" state="M"/>
    <connection from=":J0_5" to="E0" fromLane="0" toLane="0" via=":J0_12_0" dir="l" state="m"/>
    <connection from=":J0_12" to="E0" fromLane="0" toLane="0" dir="l" state="M"/>
    <connection from=":J0_6" to="-E3" fromLane="0" toLane="0" dir="r" state="M"/>
    <connection from=":J0_7" to="-E1" fromLane="0" toLane="0" dir="R" state="M"/>
    <connection from=":J0_8" to="E2" fromLane="0" toLane="0" dir="s" state="M"/>
    <connection from=":J0_9" to="E0" fromLane="0" toLane="0" dir="R" state="M"/>
    <connection from=":J0_10" to="-E3" fromLane="0" toLane="0" dir="s" state="M"/>
    <connection from=":J0_11" to="-E1" fromLane="0" toLane="0" via=":J0_13_0" dir="l" state="m"/>
    <connection from=":J0_13" to="-E1" fromLane="0" toLane="0" dir="l" state="M"/>
    <connection from=":J1_0" to="-E0" fromLane="0" toLane="0" dir="s" state="M"/>
    <connection from=":J1_1" to="-E7" fromLane="0" toLane="0" dir="s" state="M"/>
    <connection from=":J2_0" to="E1" fromLane="0" toLane="0" dir="s" state="M"/>
    <connection from=":J2_1" to="-E5" fromLane="0" toLane="0" dir="s" state="M"/>
    <connection from=":J3_0" to="-E4" fromLane="0" toLane="0" dir="s" state="M"/>
    <connection from=":J3_1" to="-E2" fromLane="0" toLane="0" dir="s" state="M"/>
    <connection from=":J4_0" to="E3" fromLane="0" toLane="0" dir="s" state="M"/>
    <connection from=":J4_1" to="-E6" fromLane="0" toLane="0" dir="s" state="M"/>

</net>
