<?xml version="1.0" encoding="UTF-8"?>

<!-- generated on 2025-07-11 12:58:53 by Eclipse SUMO netedit Version 1.22.0
<neteditConfiguration xmlns:xsi="http://www.w3.org/2001/XMLSchema-instance" xsi:noNamespaceSchemaLocation="http://sumo.dlr.de/xsd/neteditConfiguration.xsd">

    <input>
        <sumo-net-file value="C:\Users\danie\OneDrive\Documentos\Inteligencia Artificial UAB\TUM\TFG\MAI\sumo\map\simple_inclined_5_10m.net.xml"/>
    </input>

    <output>
        <output-file value="C:\Users\danie\OneDrive\Documentos\Inteligencia Artificial UAB\TUM\TFG\MAI\sumo\map\simple_inclined_5_10m.net.xml"/>
    </output>

    <processing>
        <geometry.min-radius.fix.railways value="false"/>
        <geometry.max-grade.fix value="false"/>
        <offset.disable-normalization value="true"/>
        <lefthand value="0"/>
    </processing>

    <junctions>
        <no-turnarounds value="true"/>
        <junctions.corner-detail value="5"/>
        <junctions.limit-turn-speed value="5.50"/>
        <rectangular-lane-cut value="0"/>
    </junctions>

    <pedestrian>
        <walkingareas value="0"/>
    </pedestrian>

</neteditConfiguration>
-->

<net version="1.20" junctionCornerDetail="5" limitTurnSpeed="5.50" xmlns:xsi="http://www.w3.org/2001/XMLSchema-instance" xsi:noNamespaceSchemaLocation="http://sumo.dlr.de/xsd/net_file.xsd">

    <location netOffset="0.00,0.00" convBoundary="-83.65,-100.00,85.85,100.00" origBoundary="-10000000000.00,-10000000000.00,10000000000.00,10000000000.00" projParameter="!"/>

    <edge id=":J0_0" function="internal">
        <lane id=":J0_0_0" index="0" speed="8.08" length="18.69" width="10.00" shape="-5.00,25.05 -5.70,19.27 -7.81,16.45 -11.33,16.60 -16.26,19.70"/>
    </edge>
    <edge id=":J0_1" function="internal">
        <lane id=":J0_1_0" index="0" speed="13.89" length="34.12" width="10.00" shape="-5.00,25.05 -5.00,-9.07"/>
    </edge>
    <edge id=":J0_2" function="internal">
        <lane id=":J0_2_0" index="0" speed="10.52" length="34.19" width="10.00" shape="-5.00,25.05 -1.77,18.21 5.86,12.23 14.84,8.89 22.10,10.01"/>
    </edge>
    <edge id=":J0_3" function="internal">
        <lane id=":J0_3_0" index="0" speed="8.23" length="19.07" width="10.00" shape="16.18,18.07 11.29,15.43 7.80,15.72 5.70,18.92 5.00,25.05"/>
    </edge>
    <edge id=":J0_4" function="internal">
        <lane id=":J0_4_0" index="0" speed="13.89" length="35.31" width="10.00" shape="16.18,18.07 8.15,13.77 0.06,12.60 -8.07,14.58 -16.26,19.70"/>
    </edge>
    <edge id=":J0_5" function="internal">
        <lane id=":J0_5_0" index="0" speed="13.89" length="35.43" width="10.00" shape="16.18,18.07 6.92,10.55 0.30,3.52 -3.68,-3.02 -5.00,-9.07"/>
    </edge>
    <edge id=":J0_6" function="internal">
        <lane id=":J0_6_0" index="0" speed="13.89" length="26.18" width="10.00" shape="5.00,-9.07 6.07,-5.42 9.27,-1.03 14.62,4.11 22.10,10.01"/>
    </edge>
    <edge id=":J0_7" function="internal">
        <lane id=":J0_7_0" index="0" speed="13.89" length="34.12" width="10.00" shape="5.00,-9.07 5.00,25.05"/>
    </edge>
    <edge id=":J0_8" function="internal">
        <lane id=":J0_8_0" index="0" speed="13.89" length="36.05" width="10.00" shape="5.00,-9.07 2.65,-3.56 -3.05,4.81 -10.03,13.44 -16.26,19.70"/>
    </edge>
    <edge id=":J0_9" function="internal">
        <lane id=":J0_9_0" index="0" speed="13.89" length="27.91" width="10.00" shape="-22.58,11.95 -14.89,5.27 -9.39,-0.47 -6.10,-5.24 -5.00,-9.07"/>
    </edge>
    <edge id=":J0_10" function="internal">
        <lane id=":J0_10_0" index="0" speed="13.89" length="48.62" width="10.00" shape="-22.58,11.95 -11.38,4.98 -0.20,2.33 10.96,4.01 22.10,10.01"/>
    </edge>
    <edge id=":J0_11" function="internal">
        <lane id=":J0_11_0" index="0" speed="11.12" length="39.82" width="10.00" shape="-22.58,11.95 -12.72,7.09 -3.86,8.12 2.54,14.34 5.00,25.05"/>
    </edge>
    <edge id=":J1_0" function="internal">
        <lane id=":J1_0_0" index="0" speed="13.89" length="0.10" width="10.00" shape="-5.00,-40.00 -5.00,-40.00"/>
    </edge>
    <edge id=":J1_1" function="internal">
        <lane id=":J1_1_0" index="0" speed="13.89" length="0.10" width="10.00" shape="5.00,-40.00 5.00,-40.00"/>
    </edge>
    <edge id=":J2_0" function="internal">
        <lane id=":J2_0_0" index="0" speed="13.89" length="0.10" width="10.00" shape="-5.00,40.00 -5.00,40.00"/>
    </edge>
    <edge id=":J2_1" function="internal">
        <lane id=":J2_1_0" index="0" speed="13.89" length="0.10" width="10.00" shape="5.00,40.00 5.00,40.00"/>
    </edge>
    <edge id=":J3_0" function="internal">
        <lane id=":J3_0_0" index="0" speed="13.89" length="0.22" width="10.00" shape="-34.53,34.59 -34.69,34.73"/>
    </edge>
    <edge id=":J3_1" function="internal">
        <lane id=":J3_1_0" index="0" speed="13.89" length="0.36" width="10.00" shape="-41.13,27.07 -40.85,26.84"/>
    </edge>
    <edge id=":J4_0" function="internal">
        <lane id=":J4_0_0" index="0" speed="13.89" length="0.32" width="10.00" shape="31.68,29.44 31.42,29.25"/>
    </edge>
    <edge id=":J4_1" function="internal">
        <lane id=":J4_1_0" index="0" speed="13.89" length="0.28" width="10.00" shape="37.34,21.19 37.56,21.36"/>
    </edge>

    <edge id="-E0" from="J1" to="J0" priority="-1">
        <lane id="-E0_0" index="0" speed="13.89" length="30.93" width="10.00" shape="5.00,-40.00 5.00,-9.07"/>
    </edge>
    <edge id="-E1" from="J0" to="J2" priority="-1">
        <lane id="-E1_0" index="0" speed="13.89" length="14.95" width="10.00" shape="5.00,25.05 5.00,40.00"/>
    </edge>
    <edge id="-E2" from="J3" to="J0" priority="-1">
        <lane id="-E2_0" index="0" speed="13.89" length="23.57" width="10.00" shape="-40.85,26.84 -22.58,11.95"/>
    </edge>
    <edge id="-E3" from="J0" to="J4" priority="-1">
        <lane id="-E3_0" index="0" speed="13.89" length="18.90" width="10.00" shape="22.10,10.01 37.34,21.19"/>
    </edge>
    <edge id="-E4" from="J3" to="J5" priority="-1">
        <lane id="-E4_0" index="0" speed="13.89" length="59.73" width="10.00" shape="-34.69,34.73 -80.43,73.15"/>
    </edge>
    <edge id="-E5" from="J2" to="J6" priority="-1">
        <lane id="-E5_0" index="0" speed="13.89" length="60.00" width="10.00" shape="5.00,40.00 5.00,100.00"/>
    </edge>
    <edge id="-E6" from="J4" to="J7" priority="-1">
        <lane id="-E6_0" index="0" speed="13.89" length="63.38" width="10.00" shape="37.56,21.36 88.79,58.67"/>
    </edge>
    <edge id="-E7" from="J1" to="J8" priority="-1">
        <lane id="-E7_0" index="0" speed="13.89" length="60.00" width="10.00" shape="-5.00,-40.00 -5.00,-100.00"/>
    </edge>
    <edge id="E0" from="J0" to="J1" priority="-1">
        <lane id="E0_0" index="0" speed="13.89" length="30.93" width="10.00" shape="-5.00,-9.07 -5.00,-40.00"/>
    </edge>
    <edge id="E1" from="J2" to="J0" priority="-1">
        <lane id="E1_0" index="0" speed="13.89" length="14.95" width="10.00" shape="-5.00,40.00 -5.00,25.05"/>
    </edge>
    <edge id="E2" from="J0" to="J3" priority="-1">
        <lane id="E2_0" index="0" speed="13.89" length="23.57" width="10.00" shape="-16.26,19.70 -34.53,34.59"/>
    </edge>
    <edge id="E3" from="J4" to="J0" priority="-1">
        <lane id="E3_0" index="0" speed="13.89" length="18.90" width="10.00" shape="31.42,29.25 16.18,18.07"/>
    </edge>
    <edge id="E4" from="J5" to="J3" priority="-1">
        <lane id="E4_0" index="0" speed="13.89" length="59.73" width="10.00" shape="-86.87,65.49 -41.13,27.07"/>
    </edge>
    <edge id="E5" from="J6" to="J2" priority="-1">
        <lane id="E5_0" index="0" speed="13.89" length="60.00" width="10.00" shape="-5.00,100.00 -5.00,40.00"/>
    </edge>
    <edge id="E6" from="J7" to="J4" priority="-1">
        <lane id="E6_0" index="0" speed="13.89" length="63.38" width="10.00" shape="82.91,66.75 31.68,29.44"/>
    </edge>
    <edge id="E7" from="J8" to="J1" priority="-1">
        <lane id="E7_0" index="0" speed="13.89" length="60.00" width="10.00" shape="5.00,-100.00 5.00,-40.00"/>
    </edge>

    <junction id="J0" type="priority" x="0.00" y="0.00" incLanes="E1_0 E3_0 -E0_0 -E2_0" intLanes=":J0_0_0 :J0_1_0 :J0_2_0 :J0_3_0 :J0_4_0 :J0_5_0 :J0_6_0 :J0_7_0 :J0_8_0 :J0_9_0 :J0_10_0 :J0_11_0" shape="-10.00,25.05 10.00,25.05 10.36,22.36 10.81,21.66 11.43,21.38 12.24,21.53 13.23,22.10 25.06,5.98 20.46,2.49 16.69,-0.60 13.76,-3.30 11.67,-5.62 10.42,-7.54 10.00,-9.07 -10.00,-9.07 -11.75,-5.24 -13.93,-2.62 -16.99,0.47 -20.93,4.04 -25.74,8.08 -13.10,23.58 -11.38,22.62 -10.78,22.68 -10.34,23.11 -10.09,23.90">
        <request index="0"  response="000000000000" foes="000100010000" cont="0"/>
        <request index="1"  response="000000000000" foes="111100110000" cont="0"/>
        <request index="2"  response="000011000000" foes="110011110000" cont="0"/>
        <request index="3"  response="000010000000" foes="100010000000" cont="0"/>
        <request index="4"  response="000110000111" foes="100110000111" cont="0"/>
        <request index="5"  response="011110000110" foes="111110000110" cont="0"/>
        <request index="6"  response="000000000000" foes="010000000100" cont="0"/>
        <request index="7"  response="000000000000" foes="110000111100" cont="0"/>
        <request index="8"  response="000000000011" foes="110000110011" cont="0"/>
        <request index="9"  response="000000000010" foes="000000100010" cont="0"/>
        <request index="10" response="000111000110" foes="000111100110" cont="0"/>
        <request index="11" response="000110111110" foes="000110111110" cont="0"/>
    </junction>
    <junction id="J1" type="priority" x="0.00" y="-40.00" incLanes="E0_0 E7_0" intLanes=":J1_0_0 :J1_1_0" shape="-10.00,-40.00 10.00,-40.00 -10.00,-40.00">
        <request index="0" response="00" foes="00" cont="0"/>
        <request index="1" response="00" foes="00" cont="0"/>
    </junction>
    <junction id="J2" type="priority" x="0.00" y="40.00" incLanes="E5_0 -E1_0" intLanes=":J2_0_0 :J2_1_0" shape="-10.00,40.00 10.00,40.00 -10.00,40.00">
        <request index="0" response="00" foes="00" cont="0"/>
        <request index="1" response="00" foes="00" cont="0"/>
    </junction>
    <junction id="J3" type="priority" x="-37.80" y="30.81" incLanes="E2_0 E4_0" intLanes=":J3_0_0 :J3_1_0" shape="-31.37,38.47 -44.01,22.97 -44.34,23.25 -31.48,38.56">
        <request index="0" response="00" foes="00" cont="0"/>
        <request index="1" response="00" foes="00" cont="0"/>
    </junction>
    <junction id="J4" type="priority" x="34.50" y="25.31" incLanes="E6_0 -E3_0" intLanes=":J4_0_0 :J4_1_0" shape="28.73,33.48 40.51,17.31 40.29,17.16 28.46,33.28">
        <request index="0" response="00" foes="00" cont="0"/>
        <request index="1" response="00" foes="00" cont="0"/>
    </junction>
    <junction id="J5" type="dead_end" x="-83.65" y="69.32" incLanes="-E4_0" intLanes="" shape="-83.65,69.32 -77.22,76.98 -83.65,69.32"/>
    <junction id="J6" type="dead_end" x="0.00" y="100.00" incLanes="-E5_0" intLanes="" shape="0.00,100.00 10.00,100.00 0.00,100.00"/>
    <junction id="J7" type="dead_end" x="85.85" y="62.71" incLanes="-E6_0" intLanes="" shape="85.85,62.71 91.74,54.63 85.85,62.71"/>
    <junction id="J8" type="dead_end" x="0.00" y="-100.00" incLanes="-E7_0" intLanes="" shape="0.00,-100.00 -10.00,-100.00 0.00,-100.00"/>

    <connection from="-E0" to="-E3" fromLane="0" toLane="0" via=":J0_6_0" dir="r" state="M"/>
    <connection from="-E0" to="-E1" fromLane="0" toLane="0" via=":J0_7_0" dir="s" state="M"/>
    <connection from="-E0" to="E2" fromLane="0" toLane="0" contPos="0.00" via=":J0_8_0" dir="l" state="m"/>
    <connection from="-E1" to="-E5" fromLane="0" toLane="0" via=":J2_1_0" dir="s" state="M"/>
    <connection from="-E2" to="E0" fromLane="0" toLane="0" via=":J0_9_0" dir="r" state="m"/>
    <connection from="-E2" to="-E3" fromLane="0" toLane="0" via=":J0_10_0" dir="L" state="m"/>
    <connection from="-E2" to="-E1" fromLane="0" toLane="0" via=":J0_11_0" dir="l" state="m"/>
    <connection from="-E3" to="-E6" fromLane="0" toLane="0" via=":J4_1_0" dir="s" state="M"/>
    <connection from="E0" to="-E7" fromLane="0" toLane="0" via=":J1_0_0" dir="s" state="M"/>
    <connection from="E1" to="E2" fromLane="0" toLane="0" via=":J0_0_0" dir="r" state="M"/>
    <connection from="E1" to="E0" fromLane="0" toLane="0" via=":J0_1_0" dir="s" state="M"/>
    <connection from="E1" to="-E3" fromLane="0" toLane="0" contPos="0.00" via=":J0_2_0" dir="l" state="m"/>
    <connection from="E2" to="-E4" fromLane="0" toLane="0" via=":J3_0_0" dir="s" state="M"/>
    <connection from="E3" to="-E1" fromLane="0" toLane="0" via=":J0_3_0" dir="r" state="m"/>
    <connection from="E3" to="E2" fromLane="0" toLane="0" via=":J0_4_0" dir="R" state="m"/>
    <connection from="E3" to="E0" fromLane="0" toLane="0" via=":J0_5_0" dir="l" state="m"/>
    <connection from="E4" to="-E2" fromLane="0" toLane="0" via=":J3_1_0" dir="s" state="M"/>
    <connection from="E5" to="E1" fromLane="0" toLane="0" via=":J2_0_0" dir="s" state="M"/>
    <connection from="E6" to="E3" fromLane="0" toLane="0" via=":J4_0_0" dir="s" state="M"/>
    <connection from="E7" to="-E0" fromLane="0" toLane="0" via=":J1_1_0" dir="s" state="M"/>

    <connection from=":J0_0" to="E2" fromLane="0" toLane="0" dir="r" state="M"/>
    <connection from=":J0_1" to="E0" fromLane="0" toLane="0" dir="s" state="M"/>
    <connection from=":J0_2" to="-E3" fromLane="0" toLane="0" dir="l" state="M"/>
    <connection from=":J0_3" to="-E1" fromLane="0" toLane="0" dir="r" state="M"/>
    <connection from=":J0_4" to="E2" fromLane="0" toLane="0" dir="R" state="M"/>
    <connection from=":J0_5" to="E0" fromLane="0" toLane="0" dir="l" state="M"/>
    <connection from=":J0_6" to="-E3" fromLane="0" toLane="0" dir="r" state="M"/>
    <connection from=":J0_7" to="-E1" fromLane="0" toLane="0" dir="s" state="M"/>
    <connection from=":J0_8" to="E2" fromLane="0" toLane="0" dir="l" state="M"/>
    <connection from=":J0_9" to="E0" fromLane="0" toLane="0" dir="r" state="M"/>
    <connection from=":J0_10" to="-E3" fromLane="0" toLane="0" dir="L" state="M"/>
    <connection from=":J0_11" to="-E1" fromLane="0" toLane="0" dir="l" state="M"/>
    <connection from=":J1_0" to="-E7" fromLane="0" toLane="0" dir="s" state="M"/>
    <connection from=":J1_1" to="-E0" fromLane="0" toLane="0" dir="s" state="M"/>
    <connection from=":J2_0" to="E1" fromLane="0" toLane="0" dir="s" state="M"/>
    <connection from=":J2_1" to="-E5" fromLane="0" toLane="0" dir="s" state="M"/>
    <connection from=":J3_0" to="-E4" fromLane="0" toLane="0" dir="s" state="M"/>
    <connection from=":J3_1" to="-E2" fromLane="0" toLane="0" dir="s" state="M"/>
    <connection from=":J4_0" to="E3" fromLane="0" toLane="0" dir="s" state="M"/>
    <connection from=":J4_1" to="-E6" fromLane="0" toLane="0" dir="s" state="M"/>

</net>
