<?xml version="1.0" encoding="UTF-8"?>

<!-- generated on 2025-05-22 17:18:26 by Eclipse SUMO netedit Version 1.22.0
<neteditConfiguration xmlns:xsi="http://www.w3.org/2001/XMLSchema-instance" xsi:noNamespaceSchemaLocation="http://sumo.dlr.de/xsd/neteditConfiguration.xsd">

    <input>
        <sumo-net-file value="C:\Users\danie\OneDrive\Documentos\Inteligencia Artificial UAB\TUM\TFG\MTP\sumo_files\map\simple_inclined_2_7m.net.xml"/>
    </input>

    <output>
        <output-file value="C:\Users\danie\OneDrive\Documentos\Inteligencia Artificial UAB\TUM\TFG\MTP\sumo_files\map\simple_inclined_2_7m.net.xml"/>
    </output>

    <processing>
        <geometry.min-radius.fix.railways value="false"/>
        <geometry.max-grade.fix value="false"/>
        <offset.disable-normalization value="true"/>
        <lefthand value="0"/>
    </processing>

    <junctions>
        <no-turnarounds value="true"/>
        <junctions.corner-detail value="5"/>
        <junctions.limit-turn-speed value="5.50"/>
        <rectangular-lane-cut value="0"/>
    </junctions>

    <pedestrian>
        <walkingareas value="0"/>
    </pedestrian>

</neteditConfiguration>
-->

<net version="1.20" junctionCornerDetail="5" limitTurnSpeed="5.50" xmlns:xsi="http://www.w3.org/2001/XMLSchema-instance" xsi:noNamespaceSchemaLocation="http://sumo.dlr.de/xsd/net_file.xsd">

    <location netOffset="0.00,0.00" convBoundary="-100.00,-87.30,101.02,94.35" origBoundary="-10000000000.00,-10000000000.00,10000000000.00,10000000000.00" projParameter="!"/>

    <edge id=":J0_0" function="internal">
        <lane id=":J0_0_0" index="0" speed="7.84" length="13.08" width="7.00" shape="10.16,6.55 6.77,6.15 4.11,7.10 2.16,9.38 0.92,13.01"/>
    </edge>
    <edge id=":J0_1" function="internal">
        <lane id=":J0_1_0" index="0" speed="13.89" length="22.96" width="7.00" shape="10.16,6.55 5.28,5.49 -1.13,4.51 -7.58,3.78 -12.57,3.50"/>
    </edge>
    <edge id=":J0_2" function="internal">
        <lane id=":J0_2_0" index="0" speed="11.76" length="23.57" width="7.00" shape="10.16,6.55 5.14,3.94 0.71,-0.42 -2.47,-5.70 -3.76,-11.08"/>
    </edge>
    <edge id=":J0_3" function="internal">
        <lane id=":J0_3_0" index="0" speed="9.64" length="15.28" width="7.00" shape="3.25,-11.24 3.88,-7.33 5.56,-4.18 8.29,-1.80 12.09,-0.18"/>
    </edge>
    <edge id=":J0_4" function="internal">
        <lane id=":J0_4_0" index="0" speed="13.89" length="24.39" width="7.00" shape="3.25,-11.24 3.08,-6.03 2.50,0.92 1.72,7.86 0.92,13.01"/>
    </edge>
    <edge id=":J0_5" function="internal">
        <lane id=":J0_5_0" index="0" speed="10.31" length="23.40" width="7.00" shape="3.25,-11.24 1.86,-5.90 -1.89,-1.17 -7.03,2.21 -12.57,3.50"/>
    </edge>
    <edge id=":J0_6" function="internal">
        <lane id=":J0_6_0" index="0" speed="8.03" length="13.29" width="7.00" shape="-12.57,-3.50 -8.65,-3.97 -5.87,-5.40 -4.24,-7.76 -3.76,-11.08"/>
    </edge>
    <edge id=":J0_7" function="internal">
        <lane id=":J0_7_0" index="0" speed="13.89" length="24.91" width="7.00" shape="-12.57,-3.50 -7.28,-3.17 -0.17,-2.36 6.91,-1.28 12.09,-0.18"/>
    </edge>
    <edge id=":J0_8" function="internal">
        <lane id=":J0_8_0" index="0" speed="9.74" length="23.39" width="7.00" shape="-12.57,-3.50 -7.26,-1.90 -2.63,2.15 0.41,7.50 0.92,13.01"/>
    </edge>
    <edge id=":J0_9" function="internal">
        <lane id=":J0_9_0" index="0" speed="7.45" length="12.60" width="7.00" shape="-5.94,11.62 -5.73,8.07 -6.77,5.53 -9.05,4.01 -12.57,3.50"/>
    </edge>
    <edge id=":J0_10" function="internal">
        <lane id=":J0_10_0" index="0" speed="13.89" length="22.82" width="7.00" shape="-5.94,11.62 -5.16,6.71 -4.43,0.31 -3.91,-6.11 -3.76,-11.08"/>
    </edge>
    <edge id=":J0_11" function="internal">
        <lane id=":J0_11_0" index="0" speed="10.12" length="23.40" width="7.00" shape="-5.94,11.62 -3.49,6.53 1.02,2.34 6.56,-0.16 12.09,-0.18"/>
    </edge>
    <edge id=":J1_0" function="internal">
        <lane id=":J1_0_0" index="0" speed="13.89" length="0.31" width="7.00" shape="-4.41,-38.98 -4.41,-39.29"/>
    </edge>
    <edge id=":J1_1" function="internal">
        <lane id=":J1_1_0" index="0" speed="13.89" length="0.29" width="7.00" shape="2.59,-39.45 2.59,-39.16"/>
    </edge>
    <edge id=":J2_0" function="internal">
        <lane id=":J2_0_0" index="0" speed="13.89" length="0.33" width="7.00" shape="-5.19,43.04 -5.26,43.37"/>
    </edge>
    <edge id=":J2_1" function="internal">
        <lane id=":J2_1_0" index="0" speed="13.89" length="0.26" width="7.00" shape="-12.10,41.90 -12.05,41.65"/>
    </edge>
    <edge id=":J3_0" function="internal">
        <lane id=":J3_0_0" index="0" speed="13.89" length="0.10" width="7.00" shape="-40.00,3.50 -40.00,3.50"/>
    </edge>
    <edge id=":J3_1" function="internal">
        <lane id=":J3_1_0" index="0" speed="13.89" length="0.10" width="7.00" shape="-40.00,-3.50 -40.00,-3.50"/>
    </edge>
    <edge id=":J4_0" function="internal">
        <lane id=":J4_0_0" index="0" speed="13.89" length="0.30" width="7.00" shape="38.89,14.78 38.60,14.70"/>
    </edge>
    <edge id=":J4_1" function="internal">
        <lane id=":J4_1_0" index="0" speed="13.89" length="0.30" width="7.00" shape="40.53,7.97 40.82,8.06"/>
    </edge>

    <edge id="-E0" from="J1" to="J0" priority="-1" shape="-0.91,-39.22 -0.55,-25.11 0.00,0.00">
        <lane id="-E0_0" index="0" speed="13.89" length="27.92" width="7.00" shape="2.59,-39.16 2.95,-25.19 3.25,-11.24"/>
    </edge>
    <edge id="-E1" from="J0" to="J2" priority="-1">
        <lane id="-E1_0" index="0" speed="13.89" length="30.65" width="7.00" shape="0.92,13.01 -5.19,43.04"/>
    </edge>
    <edge id="-E2" from="J3" to="J0" priority="-1">
        <lane id="-E2_0" index="0" speed="13.89" length="27.43" width="7.00" shape="-40.00,-3.50 -12.57,-3.50"/>
    </edge>
    <edge id="-E3" from="J0" to="J4" priority="-1">
        <lane id="-E3_0" index="0" speed="13.89" length="29.59" width="7.00" shape="12.09,-0.18 40.53,7.97"/>
    </edge>
    <edge id="-E4" from="J3" to="J5" priority="-1">
        <lane id="-E4_0" index="0" speed="13.89" length="60.00" width="7.00" shape="-40.00,3.50 -100.00,3.50"/>
    </edge>
    <edge id="-E5" from="J2" to="J6" priority="-1">
        <lane id="-E5_0" index="0" speed="13.89" length="52.90" width="7.00" shape="-5.26,43.37 -16.37,95.09"/>
    </edge>
    <edge id="-E6" from="J4" to="J7" priority="-1">
        <lane id="-E6_0" index="0" speed="13.89" length="63.65" width="7.00" shape="40.82,8.06 101.99,25.68"/>
    </edge>
    <edge id="-E7" from="J1" to="J8" priority="-1">
        <lane id="-E7_0" index="0" speed="13.89" length="47.94" width="7.00" shape="-4.41,-39.29 -5.45,-87.22"/>
    </edge>
    <edge id="E0" from="J0" to="J1" priority="-1">
        <lane id="E0_0" index="0" speed="13.89" length="27.91" width="7.00" shape="-3.76,-11.08 -4.41,-38.98"/>
    </edge>
    <edge id="E1" from="J2" to="J0" priority="-1">
        <lane id="E1_0" index="0" speed="13.89" length="30.65" width="7.00" shape="-12.05,41.65 -5.94,11.62"/>
    </edge>
    <edge id="E2" from="J0" to="J3" priority="-1">
        <lane id="E2_0" index="0" speed="13.89" length="27.43" width="7.00" shape="-12.57,3.50 -40.00,3.50"/>
    </edge>
    <edge id="E3" from="J4" to="J0" priority="-1">
        <lane id="E3_0" index="0" speed="13.89" length="29.59" width="7.00" shape="38.60,14.70 10.16,6.55"/>
    </edge>
    <edge id="E4" from="J5" to="J3" priority="-1">
        <lane id="E4_0" index="0" speed="13.89" length="60.00" width="7.00" shape="-100.00,-3.50 -40.00,-3.50"/>
    </edge>
    <edge id="E5" from="J6" to="J2" priority="-1">
        <lane id="E5_0" index="0" speed="13.89" length="52.90" width="7.00" shape="-23.21,93.61 -12.10,41.90"/>
    </edge>
    <edge id="E6" from="J7" to="J4" priority="-1">
        <lane id="E6_0" index="0" speed="13.89" length="63.65" width="7.00" shape="100.05,32.40 38.89,14.78"/>
    </edge>
    <edge id="E7" from="J8" to="J1" priority="-1">
        <lane id="E7_0" index="0" speed="13.89" length="47.94" width="7.00" shape="1.55,-87.38 2.59,-39.45"/>
    </edge>

    <junction id="J0" type="priority" x="0.00" y="0.00" incLanes="E3_0 -E0_0 -E2_0 E1_0" intLanes=":J0_0_0 :J0_1_0 :J0_2_0 :J0_3_0 :J0_4_0 :J0_5_0 :J0_6_0 :J0_7_0 :J0_8_0 :J0_9_0 :J0_10_0 :J0_11_0" shape="9.19,9.92 13.05,-3.54 11.16,-4.25 9.61,-5.19 8.39,-6.37 7.51,-7.79 6.97,-9.44 6.75,-11.32 -7.26,-11.00 -7.81,-8.78 -8.54,-8.00 -9.58,-7.44 -10.92,-7.11 -12.57,-7.00 -12.57,7.00 -10.44,7.44 -9.77,7.98 -9.37,8.74 -9.23,9.72 -9.37,10.92 4.35,13.71 5.33,11.11 6.06,10.31 6.95,9.85 7.99,9.72">
        <request index="0"  response="000000010000" foes="000100010000" cont="0"/>
        <request index="1"  response="111000110000" foes="111100110000" cont="0"/>
        <request index="2"  response="110011110000" foes="110111110000" cont="0"/>
        <request index="3"  response="000000000000" foes="100010000000" cont="0"/>
        <request index="4"  response="000000000000" foes="100110000111" cont="0"/>
        <request index="5"  response="011000000000" foes="011110000110" cont="0"/>
        <request index="6"  response="010000000000" foes="010000000100" cont="0"/>
        <request index="7"  response="110000111000" foes="110000111100" cont="0"/>
        <request index="8"  response="110000110111" foes="110000110111" cont="0"/>
        <request index="9"  response="000000000000" foes="000000100010" cont="0"/>
        <request index="10" response="000000000000" foes="000111100110" cont="0"/>
        <request index="11" response="000000011000" foes="000110011110" cont="0"/>
    </junction>
    <junction id="J1" type="priority" x="-0.91" y="-39.22" incLanes="E0_0 E7_0" intLanes=":J1_0_0 :J1_1_0" shape="-7.90,-38.89 6.09,-39.25 6.09,-39.52 -7.91,-39.22">
        <request index="0" response="00" foes="00" cont="0"/>
        <request index="1" response="00" foes="00" cont="0"/>
    </junction>
    <junction id="J2" type="priority" x="-8.65" y="42.49" incLanes="-E1_0 E5_0" intLanes=":J2_0_0 :J2_1_0" shape="-1.76,43.74 -15.48,40.95 -15.52,41.16 -1.84,44.10">
        <request index="0" response="00" foes="00" cont="0"/>
        <request index="1" response="00" foes="00" cont="0"/>
    </junction>
    <junction id="J3" type="priority" x="-40.00" y="0.00" incLanes="E2_0 E4_0" intLanes=":J3_0_0 :J3_1_0" shape="-40.00,7.00 -40.00,-7.00 -40.00,7.00">
        <request index="0" response="00" foes="00" cont="0"/>
        <request index="1" response="00" foes="00" cont="0"/>
    </junction>
    <junction id="J4" type="priority" x="39.71" y="11.38" incLanes="E6_0 -E3_0" intLanes=":J4_0_0 :J4_1_0" shape="37.92,18.15 41.79,4.69 41.49,4.61 37.64,18.07">
        <request index="0" response="00" foes="00" cont="0"/>
        <request index="1" response="00" foes="00" cont="0"/>
    </junction>
    <junction id="J5" type="dead_end" x="-100.00" y="0.00" incLanes="-E4_0" intLanes="" shape="-100.00,0.00 -100.00,7.00 -100.00,0.00"/>
    <junction id="J6" type="dead_end" x="-19.79" y="94.35" incLanes="-E5_0" intLanes="" shape="-19.79,94.35 -12.95,95.82 -19.79,94.35"/>
    <junction id="J7" type="dead_end" x="101.02" y="29.04" incLanes="-E6_0" intLanes="" shape="101.02,29.04 102.96,22.31 101.02,29.04"/>
    <junction id="J8" type="dead_end" x="-1.95" y="-87.30" incLanes="-E7_0" intLanes="" shape="-1.95,-87.30 -8.95,-87.15 -1.95,-87.30"/>

    <connection from="-E0" to="-E3" fromLane="0" toLane="0" via=":J0_3_0" dir="r" state="M"/>
    <connection from="-E0" to="-E1" fromLane="0" toLane="0" via=":J0_4_0" dir="s" state="M"/>
    <connection from="-E0" to="E2" fromLane="0" toLane="0" contPos="0.00" via=":J0_5_0" dir="l" state="m"/>
    <connection from="-E1" to="-E5" fromLane="0" toLane="0" via=":J2_0_0" dir="s" state="M"/>
    <connection from="-E2" to="E0" fromLane="0" toLane="0" via=":J0_6_0" dir="r" state="m"/>
    <connection from="-E2" to="-E3" fromLane="0" toLane="0" via=":J0_7_0" dir="s" state="m"/>
    <connection from="-E2" to="-E1" fromLane="0" toLane="0" via=":J0_8_0" dir="l" state="m"/>
    <connection from="-E3" to="-E6" fromLane="0" toLane="0" via=":J4_1_0" dir="s" state="M"/>
    <connection from="E0" to="-E7" fromLane="0" toLane="0" via=":J1_0_0" dir="s" state="M"/>
    <connection from="E1" to="E2" fromLane="0" toLane="0" via=":J0_9_0" dir="r" state="M"/>
    <connection from="E1" to="E0" fromLane="0" toLane="0" via=":J0_10_0" dir="s" state="M"/>
    <connection from="E1" to="-E3" fromLane="0" toLane="0" contPos="0.00" via=":J0_11_0" dir="l" state="m"/>
    <connection from="E2" to="-E4" fromLane="0" toLane="0" via=":J3_0_0" dir="s" state="M"/>
    <connection from="E3" to="-E1" fromLane="0" toLane="0" via=":J0_0_0" dir="r" state="m"/>
    <connection from="E3" to="E2" fromLane="0" toLane="0" via=":J0_1_0" dir="s" state="m"/>
    <connection from="E3" to="E0" fromLane="0" toLane="0" via=":J0_2_0" dir="l" state="m"/>
    <connection from="E4" to="-E2" fromLane="0" toLane="0" via=":J3_1_0" dir="s" state="M"/>
    <connection from="E5" to="E1" fromLane="0" toLane="0" via=":J2_1_0" dir="s" state="M"/>
    <connection from="E6" to="E3" fromLane="0" toLane="0" via=":J4_0_0" dir="s" state="M"/>
    <connection from="E7" to="-E0" fromLane="0" toLane="0" via=":J1_1_0" dir="s" state="M"/>

    <connection from=":J0_0" to="-E1" fromLane="0" toLane="0" dir="r" state="M"/>
    <connection from=":J0_1" to="E2" fromLane="0" toLane="0" dir="s" state="M"/>
    <connection from=":J0_2" to="E0" fromLane="0" toLane="0" dir="l" state="M"/>
    <connection from=":J0_3" to="-E3" fromLane="0" toLane="0" dir="r" state="M"/>
    <connection from=":J0_4" to="-E1" fromLane="0" toLane="0" dir="s" state="M"/>
    <connection from=":J0_5" to="E2" fromLane="0" toLane="0" dir="l" state="M"/>
    <connection from=":J0_6" to="E0" fromLane="0" toLane="0" dir="r" state="M"/>
    <connection from=":J0_7" to="-E3" fromLane="0" toLane="0" dir="s" state="M"/>
    <connection from=":J0_8" to="-E1" fromLane="0" toLane="0" dir="l" state="M"/>
    <connection from=":J0_9" to="E2" fromLane="0" toLane="0" dir="r" state="M"/>
    <connection from=":J0_10" to="E0" fromLane="0" toLane="0" dir="s" state="M"/>
    <connection from=":J0_11" to="-E3" fromLane="0" toLane="0" dir="l" state="M"/>
    <connection from=":J1_0" to="-E7" fromLane="0" toLane="0" dir="s" state="M"/>
    <connection from=":J1_1" to="-E0" fromLane="0" toLane="0" dir="s" state="M"/>
    <connection from=":J2_0" to="-E5" fromLane="0" toLane="0" dir="s" state="M"/>
    <connection from=":J2_1" to="E1" fromLane="0" toLane="0" dir="s" state="M"/>
    <connection from=":J3_0" to="-E4" fromLane="0" toLane="0" dir="s" state="M"/>
    <connection from=":J3_1" to="-E2" fromLane="0" toLane="0" dir="s" state="M"/>
    <connection from=":J4_0" to="E3" fromLane="0" toLane="0" dir="s" state="M"/>
    <connection from=":J4_1" to="-E6" fromLane="0" toLane="0" dir="s" state="M"/>

</net>
