<?xml version="1.0" encoding="UTF-8"?>

<!-- generated on 2025-05-22 17:30:09 by Eclipse SUMO netedit Version 1.22.0
<neteditConfiguration xmlns:xsi="http://www.w3.org/2001/XMLSchema-instance" xsi:noNamespaceSchemaLocation="http://sumo.dlr.de/xsd/neteditConfiguration.xsd">

    <input>
        <sumo-net-file value="C:\Users\danie\OneDrive\Documentos\Inteligencia Artificial UAB\TUM\TFG\MTP\sumo_files\map\x_separate_10m.net.xml"/>
    </input>

    <output>
        <output-file value="C:\Users\danie\OneDrive\Documentos\Inteligencia Artificial UAB\TUM\TFG\MTP\sumo_files\map\x_separate_10m.net.xml"/>
    </output>

    <processing>
        <geometry.min-radius.fix.railways value="false"/>
        <geometry.max-grade.fix value="false"/>
        <offset.disable-normalization value="true"/>
        <lefthand value="0"/>
    </processing>

    <junctions>
        <no-turnarounds value="true"/>
        <junctions.corner-detail value="5"/>
        <junctions.limit-turn-speed value="5.50"/>
        <rectangular-lane-cut value="0"/>
    </junctions>

    <pedestrian>
        <walkingareas value="0"/>
    </pedestrian>

</neteditConfiguration>
-->

<net version="1.20" junctionCornerDetail="5" limitTurnSpeed="5.50" xmlns:xsi="http://www.w3.org/2001/XMLSchema-instance" xsi:noNamespaceSchemaLocation="http://sumo.dlr.de/xsd/net_file.xsd">

    <location netOffset="0.00,0.00" convBoundary="-104.17,-98.77,94.01,89.84" origBoundary="-10000000000.00,-10000000000.00,10000000000.00,10000000000.00" projParameter="!"/>

    <edge id=":J0_0" function="internal">
        <lane id=":J0_0_0" index="0" speed="9.03" length="15.59" width="10.00" shape="5.94,13.57 2.72,11.06 -0.66,10.20 -4.19,10.98 -7.87,13.40"/>
    </edge>
    <edge id=":J0_1" function="internal">
        <lane id=":J0_1_0" index="0" speed="13.89" length="28.54" width="10.00" shape="5.94,13.57 -13.92,-6.92"/>
    </edge>
    <edge id=":J0_2" function="internal">
        <lane id=":J0_2_0" index="0" speed="11.66" length="9.06" width="10.00" shape="5.94,13.57 2.57,7.52 2.29,5.41"/>
    </edge>
    <edge id=":J0_12" function="internal">
        <lane id=":J0_12_0" index="0" speed="11.66" length="19.88" width="10.00" shape="2.29,5.41 1.59,0.04 2.96,-7.38 6.64,-13.25"/>
    </edge>
    <edge id=":J0_3" function="internal">
        <lane id=":J0_3_0" index="0" speed="8.65" length="14.49" width="10.00" shape="13.54,-6.01 11.09,-2.89 10.21,0.27 10.92,3.47 13.21,6.71"/>
    </edge>
    <edge id=":J0_4" function="internal">
        <lane id=":J0_4_0" index="0" speed="13.89" length="28.90" width="10.00" shape="13.54,-6.01 -7.87,13.40"/>
    </edge>
    <edge id=":J0_5" function="internal">
        <lane id=":J0_5_0" index="0" speed="11.82" length="29.52" width="10.00" shape="13.54,-6.01 7.42,-2.68 -0.25,-1.80 -7.89,-3.26 -13.92,-6.92"/>
    </edge>
    <edge id=":J0_6" function="internal">
        <lane id=":J0_6_0" index="0" speed="8.89" length="15.30" width="10.00" shape="-6.82,-13.97 -3.38,-11.31 0.00,-10.30 3.34,-10.95 6.64,-13.25"/>
    </edge>
    <edge id=":J0_7" function="internal">
        <lane id=":J0_7_0" index="0" speed="13.89" length="28.79" width="10.00" shape="-6.82,-13.97 13.21,6.71"/>
    </edge>
    <edge id=":J0_8" function="internal">
        <lane id=":J0_8_0" index="0" speed="11.49" length="8.97" width="10.00" shape="-6.82,-13.97 -3.39,-7.85 -3.16,-5.90"/>
    </edge>
    <edge id=":J0_13" function="internal">
        <lane id=":J0_13_0" index="0" speed="11.49" length="20.67" width="10.00" shape="-3.16,-5.90 -2.47,-0.09 -3.99,7.56 -7.87,13.40"/>
    </edge>
    <edge id=":J0_9" function="internal">
        <lane id=":J0_9_0" index="0" speed="8.53" length="14.80" width="10.00" shape="-14.41,5.84 -11.72,2.74 -10.74,-0.41 -11.47,-3.64 -13.92,-6.92"/>
    </edge>
    <edge id=":J0_10" function="internal">
        <lane id=":J0_10_0" index="0" speed="13.89" length="28.41" width="10.00" shape="-14.41,5.84 6.64,-13.25"/>
    </edge>
    <edge id=":J0_11" function="internal">
        <lane id=":J0_11_0" index="0" speed="11.94" length="29.62" width="10.00" shape="-14.41,5.84 -8.11,2.61 -0.36,1.67 7.27,3.03 13.21,6.71"/>
    </edge>
    <edge id=":J1_0" function="internal">
        <lane id=":J1_0_0" index="0" speed="13.89" length="0.31" width="10.00" shape="35.17,-26.64 34.94,-26.43"/>
    </edge>
    <edge id=":J1_1" function="internal">
        <lane id=":J1_1_0" index="0" speed="13.89" length="0.29" width="10.00" shape="28.04,-33.66 28.25,-33.86"/>
    </edge>
    <edge id=":J2_0" function="internal">
        <lane id=":J2_0_0" index="0" speed="13.89" length="0.31" width="10.00" shape="-49.18,49.09 -49.41,49.29"/>
    </edge>
    <edge id=":J2_1" function="internal">
        <lane id=":J2_1_0" index="0" speed="13.89" length="0.29" width="10.00" shape="-55.94,41.71 -55.71,41.52"/>
    </edge>
    <edge id=":J3_0" function="internal">
        <lane id=":J3_0_0" index="0" speed="13.89" length="0.31" width="10.00" shape="-48.20,-41.47 -48.42,-41.69"/>
    </edge>
    <edge id=":J3_1" function="internal">
        <lane id=":J3_1_0" index="0" speed="13.89" length="0.29" width="10.00" shape="-41.31,-48.72 -41.11,-48.52"/>
    </edge>
    <edge id=":J4_0" function="internal">
        <lane id=":J4_0_0" index="0" speed="13.89" length="0.28" width="10.00" shape="29.00,37.99 28.80,37.78"/>
    </edge>
    <edge id=":J4_1" function="internal">
        <lane id=":J4_1_0" index="0" speed="13.89" length="0.31" width="10.00" shape="36.07,30.92 36.29,31.15"/>
    </edge>

    <edge id="-E0" from="J1" to="J0" priority="-1">
        <lane id="-E0_0" index="0" speed="13.89" length="29.58" width="10.00" shape="34.94,-26.43 13.54,-6.01"/>
    </edge>
    <edge id="-E1" from="J0" to="J2" priority="-1">
        <lane id="-E1_0" index="0" speed="13.89" length="54.59" width="10.00" shape="-7.87,13.40 -49.18,49.09"/>
    </edge>
    <edge id="-E2" from="J3" to="J0" priority="-1">
        <lane id="-E2_0" index="0" speed="13.89" length="48.67" width="10.00" shape="-41.11,-48.52 -6.82,-13.97"/>
    </edge>
    <edge id="-E3" from="J0" to="J4" priority="-1">
        <lane id="-E3_0" index="0" speed="13.89" length="33.30" width="10.00" shape="13.21,6.71 36.07,30.92"/>
    </edge>
    <edge id="-E4" from="J3" to="J5" priority="-1">
        <lane id="-E4_0" index="0" speed="13.89" length="75.29" width="10.00" shape="-48.42,-41.69 -101.34,-95.26"/>
    </edge>
    <edge id="-E5" from="J2" to="J6" priority="-1">
        <lane id="-E5_0" index="0" speed="13.89" length="67.96" width="10.00" shape="-49.41,49.29 -100.91,93.63"/>
    </edge>
    <edge id="-E6" from="J4" to="J7" priority="-1">
        <lane id="-E6_0" index="0" speed="13.89" length="64.31" width="10.00" shape="36.29,31.15 80.30,78.04"/>
    </edge>
    <edge id="-E7" from="J1" to="J8" priority="-1">
        <lane id="-E7_0" index="0" speed="13.89" length="86.32" width="10.00" shape="28.25,-33.86 90.55,-93.61"/>
    </edge>
    <edge id="E0" from="J0" to="J1" priority="-1">
        <lane id="E0_0" index="0" speed="13.89" length="29.58" width="10.00" shape="6.64,-13.25 28.04,-33.66"/>
    </edge>
    <edge id="E1" from="J2" to="J0" priority="-1">
        <lane id="E1_0" index="0" speed="13.89" length="54.59" width="10.00" shape="-55.71,41.52 -14.41,5.84"/>
    </edge>
    <edge id="E2" from="J0" to="J3" priority="-1">
        <lane id="E2_0" index="0" speed="13.89" length="48.67" width="10.00" shape="-13.92,-6.92 -48.20,-41.47"/>
    </edge>
    <edge id="E3" from="J4" to="J0" priority="-1">
        <lane id="E3_0" index="0" speed="13.89" length="33.30" width="10.00" shape="28.80,37.78 5.94,13.57"/>
    </edge>
    <edge id="E4" from="J5" to="J3" priority="-1">
        <lane id="E4_0" index="0" speed="13.89" length="75.29" width="10.00" shape="-94.22,-102.28 -41.31,-48.72"/>
    </edge>
    <edge id="E5" from="J6" to="J2" priority="-1">
        <lane id="E5_0" index="0" speed="13.89" length="67.96" width="10.00" shape="-107.43,86.05 -55.94,41.71"/>
    </edge>
    <edge id="E6" from="J7" to="J4" priority="-1">
        <lane id="E6_0" index="0" speed="13.89" length="64.31" width="10.00" shape="73.00,84.88 29.00,37.99"/>
    </edge>
    <edge id="E7" from="J8" to="J1" priority="-1">
        <lane id="E7_0" index="0" speed="13.89" length="86.32" width="10.00" shape="97.47,-86.39 35.17,-26.64"/>
    </edge>

    <junction id="J0" type="priority" x="0.00" y="0.00" incLanes="E3_0 -E0_0 -E2_0 E1_0" intLanes=":J0_0_0 :J0_1_0 :J0_12_0 :J0_3_0 :J0_4_0 :J0_5_0 :J0_6_0 :J0_7_0 :J0_13_0 :J0_9_0 :J0_10_0 :J0_11_0" shape="2.31,17.01 16.85,3.28 15.64,1.35 15.51,0.40 15.69,-0.54 16.19,-1.47 16.99,-2.39 3.19,-16.86 1.14,-15.66 0.08,-15.59 -1.01,-15.87 -2.13,-16.50 -3.27,-17.49 -17.46,-3.40 -16.24,-1.53 -16.11,-0.62 -16.31,0.28 -16.83,1.17 -17.67,2.05 -4.60,17.19 -2.10,15.67 -0.93,15.46 0.20,15.61 1.28,16.13">
        <request index="0"  response="000000000000" foes="000100010000" cont="0"/>
        <request index="1"  response="000000000000" foes="111100110000" cont="0"/>
        <request index="2"  response="000011000000" foes="110111110000" cont="1"/>
        <request index="3"  response="000010000000" foes="100010000000" cont="0"/>
        <request index="4"  response="000110000111" foes="100110000111" cont="0"/>
        <request index="5"  response="111110000110" foes="111110000110" cont="0"/>
        <request index="6"  response="000000000000" foes="010000000100" cont="0"/>
        <request index="7"  response="000000000000" foes="110000111100" cont="0"/>
        <request index="8"  response="000000000111" foes="110000110111" cont="1"/>
        <request index="9"  response="000000000010" foes="000000100010" cont="0"/>
        <request index="10" response="000111000110" foes="000111100110" cont="0"/>
        <request index="11" response="000110011110" foes="000110111110" cont="0"/>
    </junction>
    <junction id="J1" type="priority" x="31.60" y="-30.15" incLanes="E7_0 E0_0" intLanes=":J1_0_0 :J1_1_0" shape="38.63,-23.04 24.79,-37.47 24.59,-37.28 38.39,-22.81">
        <request index="0" response="00" foes="00" cont="0"/>
        <request index="1" response="00" foes="00" cont="0"/>
    </junction>
    <junction id="J2" type="priority" x="-52.56" y="45.40" incLanes="-E1_0 E5_0" intLanes=":J2_0_0 :J2_1_0" shape="-45.91,52.87 -58.98,37.73 -59.20,37.92 -46.15,53.08">
        <request index="0" response="00" foes="00" cont="0"/>
        <request index="1" response="00" foes="00" cont="0"/>
    </junction>
    <junction id="J3" type="priority" x="-44.76" y="-45.10" incLanes="E2_0 E4_0" intLanes=":J3_0_0 :J3_1_0" shape="-51.75,-37.95 -37.56,-52.04 -37.75,-52.23 -51.98,-38.18">
        <request index="0" response="00" foes="00" cont="0"/>
        <request index="1" response="00" foes="00" cont="0"/>
    </junction>
    <junction id="J4" type="priority" x="32.54" y="34.46" incLanes="E6_0 -E3_0" intLanes=":J4_0_0 :J4_1_0" shape="25.35,41.41 39.93,27.73 39.71,27.49 25.17,41.22">
        <request index="0" response="00" foes="00" cont="0"/>
        <request index="1" response="00" foes="00" cont="0"/>
    </junction>
    <junction id="J5" type="dead_end" x="-97.78" y="-98.77" incLanes="-E4_0" intLanes="" shape="-97.78,-98.77 -104.89,-91.74 -97.78,-98.77"/>
    <junction id="J6" type="dead_end" x="-104.17" y="89.84" incLanes="-E5_0" intLanes="" shape="-104.17,89.84 -97.64,97.42 -104.17,89.84"/>
    <junction id="J7" type="dead_end" x="76.65" y="81.46" incLanes="-E6_0" intLanes="" shape="76.65,81.46 83.94,74.62 76.65,81.46"/>
    <junction id="J8" type="dead_end" x="94.01" y="-90.00" incLanes="-E7_0" intLanes="" shape="94.01,-90.00 87.09,-97.22 94.01,-90.00"/>

    <junction id=":J0_12_0" type="internal" x="2.29" y="5.41" incLanes=":J0_2_0 -E2_0" intLanes=":J0_4_0 :J0_5_0 :J0_6_0 :J0_7_0 :J0_8_0 :J0_10_0 :J0_11_0"/>
    <junction id=":J0_13_0" type="internal" x="-3.16" y="-5.90" incLanes=":J0_8_0 :J0_2_0 E3_0" intLanes=":J0_12_0 :J0_0_0 :J0_1_0 :J0_2_0 :J0_4_0 :J0_5_0 :J0_10_0 :J0_11_0"/>

    <connection from="-E0" to="-E3" fromLane="0" toLane="0" via=":J0_3_0" dir="r" state="m"/>
    <connection from="-E0" to="-E1" fromLane="0" toLane="0" via=":J0_4_0" dir="s" state="m"/>
    <connection from="-E0" to="E2" fromLane="0" toLane="0" contPos="0.00" via=":J0_5_0" dir="l" state="m"/>
    <connection from="-E1" to="-E5" fromLane="0" toLane="0" via=":J2_0_0" dir="s" state="M"/>
    <connection from="-E2" to="E0" fromLane="0" toLane="0" via=":J0_6_0" dir="r" state="M"/>
    <connection from="-E2" to="-E3" fromLane="0" toLane="0" via=":J0_7_0" dir="s" state="M"/>
    <connection from="-E2" to="-E1" fromLane="0" toLane="0" via=":J0_8_0" dir="l" state="m"/>
    <connection from="-E3" to="-E6" fromLane="0" toLane="0" via=":J4_1_0" dir="s" state="M"/>
    <connection from="E0" to="-E7" fromLane="0" toLane="0" via=":J1_1_0" dir="s" state="M"/>
    <connection from="E1" to="E2" fromLane="0" toLane="0" via=":J0_9_0" dir="r" state="m"/>
    <connection from="E1" to="E0" fromLane="0" toLane="0" via=":J0_10_0" dir="s" state="m"/>
    <connection from="E1" to="-E3" fromLane="0" toLane="0" contPos="0.00" via=":J0_11_0" dir="l" state="m"/>
    <connection from="E2" to="-E4" fromLane="0" toLane="0" via=":J3_0_0" dir="s" state="M"/>
    <connection from="E3" to="-E1" fromLane="0" toLane="0" via=":J0_0_0" dir="r" state="M"/>
    <connection from="E3" to="E2" fromLane="0" toLane="0" via=":J0_1_0" dir="s" state="M"/>
    <connection from="E3" to="E0" fromLane="0" toLane="0" via=":J0_2_0" dir="l" state="m"/>
    <connection from="E4" to="-E2" fromLane="0" toLane="0" via=":J3_1_0" dir="s" state="M"/>
    <connection from="E5" to="E1" fromLane="0" toLane="0" via=":J2_1_0" dir="s" state="M"/>
    <connection from="E6" to="E3" fromLane="0" toLane="0" via=":J4_0_0" dir="s" state="M"/>
    <connection from="E7" to="-E0" fromLane="0" toLane="0" via=":J1_0_0" dir="s" state="M"/>

    <connection from=":J0_0" to="-E1" fromLane="0" toLane="0" dir="r" state="M"/>
    <connection from=":J0_1" to="E2" fromLane="0" toLane="0" dir="s" state="M"/>
    <connection from=":J0_2" to="E0" fromLane="0" toLane="0" via=":J0_12_0" dir="l" state="m"/>
    <connection from=":J0_12" to="E0" fromLane="0" toLane="0" dir="l" state="M"/>
    <connection from=":J0_3" to="-E3" fromLane="0" toLane="0" dir="r" state="M"/>
    <connection from=":J0_4" to="-E1" fromLane="0" toLane="0" dir="s" state="M"/>
    <connection from=":J0_5" to="E2" fromLane="0" toLane="0" dir="l" state="M"/>
    <connection from=":J0_6" to="E0" fromLane="0" toLane="0" dir="r" state="M"/>
    <connection from=":J0_7" to="-E3" fromLane="0" toLane="0" dir="s" state="M"/>
    <connection from=":J0_8" to="-E1" fromLane="0" toLane="0" via=":J0_13_0" dir="l" state="m"/>
    <connection from=":J0_13" to="-E1" fromLane="0" toLane="0" dir="l" state="M"/>
    <connection from=":J0_9" to="E2" fromLane="0" toLane="0" dir="r" state="M"/>
    <connection from=":J0_10" to="E0" fromLane="0" toLane="0" dir="s" state="M"/>
    <connection from=":J0_11" to="-E3" fromLane="0" toLane="0" dir="l" state="M"/>
    <connection from=":J1_0" to="-E0" fromLane="0" toLane="0" dir="s" state="M"/>
    <connection from=":J1_1" to="-E7" fromLane="0" toLane="0" dir="s" state="M"/>
    <connection from=":J2_0" to="-E5" fromLane="0" toLane="0" dir="s" state="M"/>
    <connection from=":J2_1" to="E1" fromLane="0" toLane="0" dir="s" state="M"/>
    <connection from=":J3_0" to="-E4" fromLane="0" toLane="0" dir="s" state="M"/>
    <connection from=":J3_1" to="-E2" fromLane="0" toLane="0" dir="s" state="M"/>
    <connection from=":J4_0" to="E3" fromLane="0" toLane="0" dir="s" state="M"/>
    <connection from=":J4_1" to="-E6" fromLane="0" toLane="0" dir="s" state="M"/>

</net>
